
**** 08/22/23 11:06:38 ******* PSpice 17.4.0 (Nov 2018) ******* ID# 0 ********

 ** Profile: "SCHEMATIC1-Counter"  [ D:\Ian_Jung\workplace\PSpice\Step_Up_Counter-PSpiceFiles\SCHEMATIC1\Counter.sim ] 


 ****     CIRCUIT DESCRIPTION


******************************************************************************




** Creating circuit file "Counter.cir" 
** WARNING: THIS AUTOMATICALLY GENERATED FILE MAY BE OVERWRITTEN BY SUBSEQUENT SIMULATIONS

*Libraries: 
* Profile Libraries :
* Local Libraries :
* From [PSPICE NETLIST] section of C:\SPB_Data\cdssetup\OrCAD_PSpice\17.4.0\PSpice.ini file:
.lib "nom.lib" 

*Analysis directives: 
.TRAN  0 20u 0 1n 
.OPTIONS ADVCONV
.OPTIONS DIGINITSTATE= 1
.PROBE64 V(alias(*)) I(alias(*)) W(alias(*)) D(alias(*)) NOISE(alias(*)) 
.INC "..\SCHEMATIC1.net" 



**** INCLUDING SCHEMATIC1.net ****
* source STEP_UP_COUNTER
X_U1         N14641 N14641 N14416 N14428 N14641 N14641 N14428 N14437 N14446
+  N14462 $G_DPWR $G_DGND 7490A PARAMS:
+ IO_LEVEL=0
+ MNTYMXDLY=0
U_DSTM1         STIM(1,1) $G_DPWR $G_DGND N14416 IO_STM IO_LEVEL=0 
+ 0 0
+ +.5uS 1
+REPEAT FOREVER
+ +.5uS 0
+  +.5uS 1
+ ENDREPEAT
V_V1         N14641 0 0.001Vdc

**** RESUMING Counter.cir ****
.END


**** Generated AtoD and DtoA Interfaces ****

*
* Analog/Digital interface for node N14641
*
* Moving X_U1.U90ALOG:IN6 from analog node N14641 to new digital node N14641$AtoD
X$N14641_AtoD1
+ N14641
+ N14641$AtoD
+ $G_DPWR
+ $G_DGND
+ AtoD_STD
+       PARAMS: CAPACITANCE=   0     
* Moving X_U1.U90ALOG:IN5 from analog node N14641 to new digital node N14641$AtoD2
X$N14641_AtoD2
+ N14641
+ N14641$AtoD2
+ $G_DPWR
+ $G_DGND
+ AtoD_STD
+       PARAMS: CAPACITANCE=   0     
* Moving X_U1.U90ALOG:IN2 from analog node N14641 to new digital node N14641$AtoD3
X$N14641_AtoD3
+ N14641
+ N14641$AtoD3
+ $G_DPWR
+ $G_DGND
+ AtoD_STD
+       PARAMS: CAPACITANCE=   0     
* Moving X_U1.U90ALOG:IN1 from analog node N14641 to new digital node N14641$AtoD4
X$N14641_AtoD4
+ N14641
+ N14641$AtoD4
+ $G_DPWR
+ $G_DGND
+ AtoD_STD
+       PARAMS: CAPACITANCE=   0     
*
* Analog/Digital interface power supply subcircuits
*
X$DIGIFPWR 0 DIGIFPWR


**** 08/22/23 11:06:38 ******* PSpice 17.4.0 (Nov 2018) ******* ID# 0 ********

 ** Profile: "SCHEMATIC1-Counter"  [ D:\Ian_Jung\workplace\PSpice\Step_Up_Counter-PSpiceFiles\SCHEMATIC1\Counter.sim ] 


 ****     Diode MODEL PARAMETERS


******************************************************************************




               D74CLMP         D74             
          IS    1.000000E-15  100.000000E-18 
          RS    2              25            
         CJO    2.000000E-12    2.000000E-12 


**** 08/22/23 11:06:38 ******* PSpice 17.4.0 (Nov 2018) ******* ID# 0 ********

 ** Profile: "SCHEMATIC1-Counter"  [ D:\Ian_Jung\workplace\PSpice\Step_Up_Counter-PSpiceFiles\SCHEMATIC1\Counter.sim ] 


 ****     BJT MODEL PARAMETERS


******************************************************************************




               Q74             
               NPN             
       LEVEL    1            
          IS  100.000000E-18 
          BF   49            
          NF    1            
         ISE  100.000000E-18 
          BR     .03         
          NR    1            
         ISC  400.000000E-18 
         ISS    0            
          RB   50            
          RE    0            
          RC   20            
         CJE    1.000000E-12 
         VJE     .9          
         MJE     .5          
         CJC  500.000000E-15 
         VJC     .8          
         MJC     .33         
        XCJC    1            
         CJS    3.000000E-12 
         VJS     .7          
         MJS     .33         
          TF  200.000000E-12 
          TR   10.000000E-09 
          KF    0            
          AF    1            
          CN    2.42         
           D     .87         


**** 08/22/23 11:06:38 ******* PSpice 17.4.0 (Nov 2018) ******* ID# 0 ********

 ** Profile: "SCHEMATIC1-Counter"  [ D:\Ian_Jung\workplace\PSpice\Step_Up_Counter-PSpiceFiles\SCHEMATIC1\Counter.sim ] 


 ****     Digital Output MODEL PARAMETERS


******************************************************************************




               DO74            
    TIMESTEP  100.000000E-12 
      S0NAME X               
       S0VHI    2            
       S0VLO     .8          
      S1NAME 0               
       S1VHI     .8          
       S1VLO   -1.5          
      S2NAME R               
       S2VHI    1.4          
       S2VLO     .8          
      S3NAME R               
       S3VHI    2            
       S3VLO    1.3          
      S4NAME X               
       S4VHI    2            
       S4VLO     .8          
      S5NAME 1               
       S5VHI    7            
       S5VLO    2            
      S6NAME F               
       S6VHI    2            
       S6VLO    1.3          
      S7NAME F               
       S7VHI    1.4          
       S7VLO     .8          


**** 08/22/23 11:06:38 ******* PSpice 17.4.0 (Nov 2018) ******* ID# 0 ********

 ** Profile: "SCHEMATIC1-Counter"  [ D:\Ian_Jung\workplace\PSpice\Step_Up_Counter-PSpiceFiles\SCHEMATIC1\Counter.sim ] 


 ****     Digital Gate MODEL PARAMETERS


******************************************************************************




               D0_GATE         
      TPLHMN    0            
      TPLHTY    0            
      TPLHMX    0            
      TPHLMN    0            
      TPHLTY    0            
      TPHLMX    0            


**** 08/22/23 11:06:38 ******* PSpice 17.4.0 (Nov 2018) ******* ID# 0 ********

 ** Profile: "SCHEMATIC1-Counter"  [ D:\Ian_Jung\workplace\PSpice\Step_Up_Counter-PSpiceFiles\SCHEMATIC1\Counter.sim ] 


 ****     Digital Edge Triggered FF MODEL PARAMETERS


******************************************************************************




               D0_EFF          
  TPCLKQLHMN    0            
  TPCLKQLHTY    0            
  TPCLKQLHMX    0            
  TPCLKQHLMN    0            
  TPCLKQHLTY    0            
  TPCLKQHLMX    0            
   TPPCQLHMN    0            
   TPPCQLHTY    0            
   TPPCQLHMX    0            
   TPPCQHLMN    0            
   TPPCQHLTY    0            
   TPPCQHLMX    0            
    TWCLKLMN    0            
    TWCLKLTY    0            
    TWCLKLMX    0            
    TWCLKHMN    0            
    TWCLKHTY    0            
    TWCLKHMX    0            
     TWPCLMN    0            
     TWPCLTY    0            
     TWPCLMX    0            
   TSUDCLKMN    0            
   TSUDCLKTY    0            
   TSUDCLKMX    0            
 TSUPCCLKHMN    0            
 TSUPCCLKHTY    0            
 TSUPCCLKHMX    0            
    THDCLKMN    0            
    THDCLKTY    0            
    THDCLKMX    0            
  TSUCECLKMN    0            
  TSUCECLKTY    0            
  TSUCECLKMX    0            
   THCECLKMN    0            
   THCECLKTY    0            
   THCECLKMX    0            


**** 08/22/23 11:06:38 ******* PSpice 17.4.0 (Nov 2018) ******* ID# 0 ********

 ** Profile: "SCHEMATIC1-Counter"  [ D:\Ian_Jung\workplace\PSpice\Step_Up_Counter-PSpiceFiles\SCHEMATIC1\Counter.sim ] 


 ****     Digital IO  MODEL PARAMETERS


******************************************************************************




               IO_STM          IO_STD          
        DRVL    0             104            
        DRVH    0              96.4          
       AtoD1                 AtoD_STD        
       AtoD2                 AtoD_STD_NX     
       AtoD3                 AtoD_STD        
       AtoD4                 AtoD_STD_NX     
       DtoA1 DtoA_STM        DtoA_STD        
       DtoA2 DtoA_STM        DtoA_STD        
       DtoA3 DtoA_STM        DtoA_STD        
       DtoA4 DtoA_STM        DtoA_STD        
      TSWHL1                    1.511000E-09 
      TSWHL2                    1.487000E-09 
      TSWHL3                    1.511000E-09 
      TSWHL4                    1.487000E-09 
      TSWLH1                    3.517000E-09 
      TSWLH2                    3.564000E-09 
      TSWLH3                    3.517000E-09 
      TSWLH4                    3.564000E-09 
       TPWRT  100.000000E+03  100.000000E+03 


**** 08/22/23 11:06:38 ******* PSpice 17.4.0 (Nov 2018) ******* ID# 0 ********

 ** Profile: "SCHEMATIC1-Counter"  [ D:\Ian_Jung\workplace\PSpice\Step_Up_Counter-PSpiceFiles\SCHEMATIC1\Counter.sim ] 


 ****     INITIAL TRANSIENT SOLUTION       TEMPERATURE =   27.000 DEG C


******************************************************************************



 NODE   VOLTAGE     NODE   VOLTAGE     NODE   VOLTAGE     NODE   VOLTAGE


(N14641)     .0010 ($G_DGND)    0.0000                   ($G_DPWR)    5.0000    

(X$N14641_AtoD1.1)     .0925          (X$N14641_AtoD1.2)     .0462              

(X$N14641_AtoD1.3)     .8287          (X$N14641_AtoD2.1)     .0925              

(X$N14641_AtoD2.2)     .0462          (X$N14641_AtoD2.3)     .8287              

(X$N14641_AtoD3.1)     .0925          (X$N14641_AtoD3.2)     .0462              

(X$N14641_AtoD3.3)     .8287          (X$N14641_AtoD4.1)     .0925              

(X$N14641_AtoD4.2)     .0462          (X$N14641_AtoD4.3)     .8287          



 DGTL NODE : STATE  DGTL NODE : STATE  DGTL NODE : STATE  DGTL NODE : STATE


( X_U1.QA) : 1     ( X_U1.QB) : 1     (X_U1.R01) : 0     (X_U1.CLRBAR23) : 1    

(X_U1.R02) : 0     (N14641$AtoD) : 0  (N14641$AtoD3) : 0                        

(   $D_HI) : 1     (X_U1.CLRBAR) : 1  (X_U1.QDBAR) : 0   (  N14446) : 1         

( X_U1.QC) : 1     (  N14428) : 1     (X_U1.CKA) : 0     (X_U1.R91) : 0         

(X_U1.CKB) : 1     (X_U1.R92) : 0     (   $D_NC) : Z     (  N14416) : 0         

(  N14437) : 1     ( X_U1.J4) : 1     (X_U1.SET9BAR) : 1                        

(  N14462) : 1     (N14641$AtoD4) : 0                    (N14641$AtoD2) : 0     

( X_U1.QD) : 1     




    VOLTAGE SOURCE CURRENTS
    NAME         CURRENT

    V_V1         4.171E-03
    X$DIGIFPWR.VDPWR  -4.176E-03
    X$DIGIFPWR.VDGND  -4.176E-03

    TOTAL POWER DISSIPATION   2.09E-02  WATTS



          JOB CONCLUDED

**** 08/22/23 11:06:38 ******* PSpice 17.4.0 (Nov 2018) ******* ID# 0 ********

 ** Profile: "SCHEMATIC1-Counter"  [ D:\Ian_Jung\workplace\PSpice\Step_Up_Counter-PSpiceFiles\SCHEMATIC1\Counter.sim ] 


 ****     JOB STATISTICS SUMMARY


******************************************************************************



  License check-out time            =        3.30
  Total job time (using Solver 1)   =         .61
