
**** 07/24/23 12:20:36 ******* PSpice 17.4.0 (Nov 2018) ******* ID# 0 ********

 ** Profile: "SCHEMATIC1-bias"  [ D:\Ian_Jung\workplace\PSpice\Electric_7-PSpiceFiles\SCHEMATIC1\bias.sim ] 


 ****     CIRCUIT DESCRIPTION


******************************************************************************




** Creating circuit file "bias.cir" 
** WARNING: THIS AUTOMATICALLY GENERATED FILE MAY BE OVERWRITTEN BY SUBSEQUENT SIMULATIONS

*Libraries: 
* Profile Libraries :
* Local Libraries :
* From [PSPICE NETLIST] section of C:\SPB_Data\cdssetup\OrCAD_PSpice\17.4.0\PSpice.ini file:
.lib "nom.lib" 

*Analysis directives: 
.OPTIONS ADVCONV
.PROBE64 V(alias(*)) I(alias(*)) W(alias(*)) D(alias(*)) NOISE(alias(*)) 
.INC "..\SCHEMATIC1.net" 



**** INCLUDING SCHEMATIC1.net ****
* source ELECTRIC_7
V_V1         N14438 0 6Vdc
R_R1         N14438 N14445  1k TC=0,0 
R_R2         0 N14487  1k TC=0,0 
R_R3         N14487 N14445  2k TC=0,0 
R_R4         N14445 A  1k TC=0,0 
R_R5         N14487 B  1k TC=0,0 
R_Rdum         B A  {R} TC=0,0 

**** RESUMING bias.cir ****
.END

ERROR(ORPSIM-15167): Undefined parameter: R.
