
**** 08/04/23 15:54:25 ******* PSpice 17.4.0 (Nov 2018) ******* ID# 0 ********

 ** Profile: "SCHEMATIC1-Tran"  [ D:\Ian_Jung\workplace\PSpice\Diode_Rectifier-PSpiceFiles\SCHEMATIC1\Tran.sim ] 


 ****     CIRCUIT DESCRIPTION


******************************************************************************




** Creating circuit file "Tran.cir" 
** WARNING: THIS AUTOMATICALLY GENERATED FILE MAY BE OVERWRITTEN BY SUBSEQUENT SIMULATIONS

*Libraries: 
* Profile Libraries :
* Local Libraries :
* From [PSPICE NETLIST] section of C:\SPB_Data\cdssetup\OrCAD_PSpice\17.4.0\PSpice.ini file:
.lib "nom.lib" 

*Analysis directives: 
.TRAN  0 40m 0 10u 
.STEP LIN PARAM C 0 100uF 20uF 
.OPTIONS ADVCONV
.PROBE64 V(alias(*)) I(alias(*)) W(alias(*)) D(alias(*)) NOISE(alias(*)) 
.INC "..\SCHEMATIC1.net" 



**** INCLUDING SCHEMATIC1.net ****
* source DIODE_RECTIFIER
V_V1         N14490 N14530  
+SIN 0 220*1.414 60Hz 0 0 0
D_D1         0 N14490 D1N4004 
D_D2         N14490 N14518 D1N4004 
D_D3         0 N14530 D1N4004 
D_D4         N14530 N14518 D1N4004 
R_R1         0 N14518  {R} TC=0,0 
C_C1         0 N14518  {C}  TC=0,0 
.PARAM  c=100uf r=1k

**** RESUMING Tran.cir ****
.END

**** 08/04/23 15:54:25 ******* PSpice 17.4.0 (Nov 2018) ******* ID# 0 ********

 ** Profile: "SCHEMATIC1-Tran"  [ D:\Ian_Jung\workplace\PSpice\Diode_Rectifier-PSpiceFiles\SCHEMATIC1\Tran.sim ] 


 ****     Diode MODEL PARAMETERS


******************************************************************************




               D1N4004         D1N4001         
          IS   14.110000E-09   14.110000E-09 
           N    1.984           1.984        
         IKF   94.81           94.81         
          BV  600              75            
         IBV   10.000000E-06   10.000000E-06 
          RS     .03389          .03389      
          TT    5.700000E-06    5.700000E-06 
         CJO   25.890000E-12   25.890000E-12 
          VJ     .3245           .3245       
           M     .44             .44         


**** 08/04/23 15:54:25 ******* PSpice 17.4.0 (Nov 2018) ******* ID# 0 ********

 ** Profile: "SCHEMATIC1-Tran"  [ D:\Ian_Jung\workplace\PSpice\Diode_Rectifier-PSpiceFiles\SCHEMATIC1\Tran.sim ] 


 ****     INITIAL TRANSIENT SOLUTION       TEMPERATURE =   27.000 DEG C

 ****     CURRENT STEP                     PARAM C =    0     


******************************************************************************



 NODE   VOLTAGE     NODE   VOLTAGE     NODE   VOLTAGE     NODE   VOLTAGE


(N14490)-1.938E-18 (N14518)-48.44E-21 (N14530)-1.938E-18 




    VOLTAGE SOURCE CURRENTS
    NAME         CURRENT

    V_V1         0.000E+00

    TOTAL POWER DISSIPATION   0.00E+00  WATTS


**** 08/04/23 15:54:25 ******* PSpice 17.4.0 (Nov 2018) ******* ID# 0 ********

 ** Profile: "SCHEMATIC1-Tran"  [ D:\Ian_Jung\workplace\PSpice\Diode_Rectifier-PSpiceFiles\SCHEMATIC1\Tran.sim ] 


 ****     INITIAL TRANSIENT SOLUTION       TEMPERATURE =   27.000 DEG C

 ****     CURRENT STEP                     PARAM C =   20.0000E-06


******************************************************************************



 NODE   VOLTAGE     NODE   VOLTAGE     NODE   VOLTAGE     NODE   VOLTAGE


(N14490)-1.938E-18 (N14518)-48.44E-21 (N14530)-1.938E-18 




    VOLTAGE SOURCE CURRENTS
    NAME         CURRENT

    V_V1         0.000E+00

    TOTAL POWER DISSIPATION   0.00E+00  WATTS


**** 08/04/23 15:54:25 ******* PSpice 17.4.0 (Nov 2018) ******* ID# 0 ********

 ** Profile: "SCHEMATIC1-Tran"  [ D:\Ian_Jung\workplace\PSpice\Diode_Rectifier-PSpiceFiles\SCHEMATIC1\Tran.sim ] 


 ****     INITIAL TRANSIENT SOLUTION       TEMPERATURE =   27.000 DEG C

 ****     CURRENT STEP                     PARAM C =   40.0000E-06


******************************************************************************



 NODE   VOLTAGE     NODE   VOLTAGE     NODE   VOLTAGE     NODE   VOLTAGE


(N14490)-1.938E-18 (N14518)-48.44E-21 (N14530)-1.938E-18 




    VOLTAGE SOURCE CURRENTS
    NAME         CURRENT

    V_V1         0.000E+00

    TOTAL POWER DISSIPATION   0.00E+00  WATTS


**** 08/04/23 15:54:25 ******* PSpice 17.4.0 (Nov 2018) ******* ID# 0 ********

 ** Profile: "SCHEMATIC1-Tran"  [ D:\Ian_Jung\workplace\PSpice\Diode_Rectifier-PSpiceFiles\SCHEMATIC1\Tran.sim ] 


 ****     INITIAL TRANSIENT SOLUTION       TEMPERATURE =   27.000 DEG C

 ****     CURRENT STEP                     PARAM C =   60.0000E-06


******************************************************************************



 NODE   VOLTAGE     NODE   VOLTAGE     NODE   VOLTAGE     NODE   VOLTAGE


(N14490)-1.938E-18 (N14518)-48.44E-21 (N14530)-1.938E-18 




    VOLTAGE SOURCE CURRENTS
    NAME         CURRENT

    V_V1         0.000E+00

    TOTAL POWER DISSIPATION   0.00E+00  WATTS


**** 08/04/23 15:54:25 ******* PSpice 17.4.0 (Nov 2018) ******* ID# 0 ********

 ** Profile: "SCHEMATIC1-Tran"  [ D:\Ian_Jung\workplace\PSpice\Diode_Rectifier-PSpiceFiles\SCHEMATIC1\Tran.sim ] 


 ****     INITIAL TRANSIENT SOLUTION       TEMPERATURE =   27.000 DEG C

 ****     CURRENT STEP                     PARAM C =   80.0000E-06


******************************************************************************



 NODE   VOLTAGE     NODE   VOLTAGE     NODE   VOLTAGE     NODE   VOLTAGE


(N14490)-1.938E-18 (N14518)-48.44E-21 (N14530)-1.938E-18 




    VOLTAGE SOURCE CURRENTS
    NAME         CURRENT

    V_V1         0.000E+00

    TOTAL POWER DISSIPATION   0.00E+00  WATTS


**** 08/04/23 15:54:25 ******* PSpice 17.4.0 (Nov 2018) ******* ID# 0 ********

 ** Profile: "SCHEMATIC1-Tran"  [ D:\Ian_Jung\workplace\PSpice\Diode_Rectifier-PSpiceFiles\SCHEMATIC1\Tran.sim ] 


 ****     INITIAL TRANSIENT SOLUTION       TEMPERATURE =   27.000 DEG C

 ****     CURRENT STEP                     PARAM C =  100.0000E-06


******************************************************************************



 NODE   VOLTAGE     NODE   VOLTAGE     NODE   VOLTAGE     NODE   VOLTAGE


(N14490)-1.938E-18 (N14518)-48.44E-21 (N14530)-1.938E-18 




    VOLTAGE SOURCE CURRENTS
    NAME         CURRENT

    V_V1         0.000E+00

    TOTAL POWER DISSIPATION   0.00E+00  WATTS



          JOB CONCLUDED

**** 08/04/23 15:54:25 ******* PSpice 17.4.0 (Nov 2018) ******* ID# 0 ********

 ** Profile: "SCHEMATIC1-Tran"  [ D:\Ian_Jung\workplace\PSpice\Diode_Rectifier-PSpiceFiles\SCHEMATIC1\Tran.sim ] 


 ****     JOB STATISTICS SUMMARY

 ****     CURRENT STEP                     PARAM C =  100.0000E-06


******************************************************************************



  License check-out time            =        3.20
  Total job time (using Solver 1)   =         .20
