
**** 07/24/23 14:13:50 ******* PSpice 17.4.0 (Nov 2018) ******* ID# 0 ********

 ** Profile: "SCHEMATIC1-Dc"  [ D:\Ian_Jung\workplace\PSpice\Electric_9-PSpiceFiles\SCHEMATIC1\Dc.sim ] 


 ****     CIRCUIT DESCRIPTION


******************************************************************************




** Creating circuit file "Dc.cir" 
** WARNING: THIS AUTOMATICALLY GENERATED FILE MAY BE OVERWRITTEN BY SUBSEQUENT SIMULATIONS

*Libraries: 
* Profile Libraries :
* Local Libraries :
* From [PSPICE NETLIST] section of C:\SPB_Data\cdssetup\OrCAD_PSpice\17.4.0\PSpice.ini file:
.lib "nom.lib" 

*Analysis directives: 
.DC LIN PARAM R 1 1k 1 
.OPTIONS ADVCONV
.PROBE64 V(alias(*)) I(alias(*)) W(alias(*)) D(alias(*)) NOISE(alias(*)) 
.INC "..\SCHEMATIC1.net" 



**** INCLUDING SCHEMATIC1.net ****
* source ELECTRIC_9
V_V1         N14356 0 10Vdc
R_R1         N14356 N14363  100 TC=0,0 
R_R2         0 N14363  {R} TC=0,0 

**** RESUMING Dc.cir ****
.END

ERROR(ORPSIM-15167): Undefined parameter: R.
