
**** 07/31/23 15:22:46 ******* PSpice 17.4.0 (Nov 2018) ******* ID# 0 ********

 ** Profile: "SCHEMATIC1-Diode-Exam"  [ D:\Ian_Jung\workplace\PSpice\Diode_Exam_2-PSpiceFiles\SCHEMATIC1\Diode-Exam.sim ] 


 ****     CIRCUIT DESCRIPTION


******************************************************************************




** Creating circuit file "Diode-Exam.cir" 
** WARNING: THIS AUTOMATICALLY GENERATED FILE MAY BE OVERWRITTEN BY SUBSEQUENT SIMULATIONS

*Libraries: 
* Profile Libraries :
* Local Libraries :
* From [PSPICE NETLIST] section of C:\SPB_Data\cdssetup\OrCAD_PSpice\17.4.0\PSpice.ini file:
.lib "nom.lib" 

*Analysis directives: 
.TRAN  0 40m 0 
.STEP PARAM C LIST 0 100uF 
.OPTIONS ADVCONV
.PROBE64 V(alias(*)) I(alias(*)) W(alias(*)) D(alias(*)) NOISE(alias(*)) 
.INC "..\SCHEMATIC1.net" 



**** INCLUDING SCHEMATIC1.net ****
* source DIODE_EXAM_2
V_V1         A B  
+SIN 0 {220*1.414} 60Hz 0 0 0
D_D1         0 A D1N4004 
D_D2         A OUT D1N4004 
D_D3         0 B D1N4004 
D_D4         B OUT D1N4004 
R_R1         0 OUT  {R} TC=0,0 
C_C1         0 OUT  {C}  TC=0,0 
.PARAM  c=100uf r=1k

**** RESUMING Diode-Exam.cir ****
.END

**** 07/31/23 15:22:46 ******* PSpice 17.4.0 (Nov 2018) ******* ID# 0 ********

 ** Profile: "SCHEMATIC1-Diode-Exam"  [ D:\Ian_Jung\workplace\PSpice\Diode_Exam_2-PSpiceFiles\SCHEMATIC1\Diode-Exam.sim ] 


 ****     Diode MODEL PARAMETERS


******************************************************************************




               D1N4004         D1N4001         
          IS   14.110000E-09   14.110000E-09 
           N    1.984           1.984        
         IKF   94.81           94.81         
          BV  600              75            
         IBV   10.000000E-06   10.000000E-06 
          RS     .03389          .03389      
          TT    5.700000E-06    5.700000E-06 
         CJO   25.890000E-12   25.890000E-12 
          VJ     .3245           .3245       
           M     .44             .44         


**** 07/31/23 15:22:46 ******* PSpice 17.4.0 (Nov 2018) ******* ID# 0 ********

 ** Profile: "SCHEMATIC1-Diode-Exam"  [ D:\Ian_Jung\workplace\PSpice\Diode_Exam_2-PSpiceFiles\SCHEMATIC1\Diode-Exam.sim ] 


 ****     INITIAL TRANSIENT SOLUTION       TEMPERATURE =   27.000 DEG C

 ****     CURRENT STEP                     PARAM C =    0     


******************************************************************************



 NODE   VOLTAGE     NODE   VOLTAGE     NODE   VOLTAGE     NODE   VOLTAGE


(    A)-1.938E-18  (    B)-1.938E-18  (  OUT)-48.44E-21  




    VOLTAGE SOURCE CURRENTS
    NAME         CURRENT

    V_V1         0.000E+00

    TOTAL POWER DISSIPATION   0.00E+00  WATTS


**** 07/31/23 15:22:46 ******* PSpice 17.4.0 (Nov 2018) ******* ID# 0 ********

 ** Profile: "SCHEMATIC1-Diode-Exam"  [ D:\Ian_Jung\workplace\PSpice\Diode_Exam_2-PSpiceFiles\SCHEMATIC1\Diode-Exam.sim ] 


 ****     INITIAL TRANSIENT SOLUTION       TEMPERATURE =   27.000 DEG C

 ****     CURRENT STEP                     PARAM C =  100.0000E-06


******************************************************************************



 NODE   VOLTAGE     NODE   VOLTAGE     NODE   VOLTAGE     NODE   VOLTAGE


(    A)-1.938E-18  (    B)-1.938E-18  (  OUT)-48.44E-21  




    VOLTAGE SOURCE CURRENTS
    NAME         CURRENT

    V_V1         0.000E+00

    TOTAL POWER DISSIPATION   0.00E+00  WATTS



          JOB CONCLUDED

**** 07/31/23 15:22:46 ******* PSpice 17.4.0 (Nov 2018) ******* ID# 0 ********

 ** Profile: "SCHEMATIC1-Diode-Exam"  [ D:\Ian_Jung\workplace\PSpice\Diode_Exam_2-PSpiceFiles\SCHEMATIC1\Diode-Exam.sim ] 


 ****     JOB STATISTICS SUMMARY

 ****     CURRENT STEP                     PARAM C =  100.0000E-06


******************************************************************************



  Total job time (using Solver 1)   =         .05
