
**** 07/24/23 11:24:58 ******* PSpice 17.4.0 (Nov 2018) ******* ID# 0 ********

 ** Profile: "SCHEMATIC1-test"  [ D:\Ian_Jung\workplace\PSpice\Electric_3-PSpiceFiles\SCHEMATIC1\test.sim ] 


 ****     CIRCUIT DESCRIPTION


******************************************************************************




** Creating circuit file "test.cir" 
** WARNING: THIS AUTOMATICALLY GENERATED FILE MAY BE OVERWRITTEN BY SUBSEQUENT SIMULATIONS

*Libraries: 
* Profile Libraries :
* Local Libraries :
* From [PSPICE NETLIST] section of C:\SPB_Data\cdssetup\OrCAD_PSpice\17.4.0\PSpice.ini file:
.lib "nom.lib" 

*Analysis directives: 
.OPTIONS ADVCONV
.PROBE64 V(alias(*)) I(alias(*)) W(alias(*)) D(alias(*)) NOISE(alias(*)) 
.INC "..\SCHEMATIC1.net" 



**** INCLUDING SCHEMATIC1.net ****
* source ELECTRIC_3
R_R1         0 N14653  {2*R} TC=0,0 
R_R2         0 N14653  {2*R} TC=0,0 
R_R3         N14653 N14677  {3*R} TC=0,0 
R_R4         N14653 N14677  {3*R} TC=0,0 
R_R5         N14653 N14677  {3*R} TC=0,0 
R_R6         N14768 N14653  {2*R} TC=0,0 
R_R7         N14814 N14653  {2*R} TC=0,0 
V_V1         0 0 2Vdc
V_V2         N14677 0 0
I_I1         0 N14768 DC 0  
I_I2         0 N14814 DC 0Adc  
.PARAM  r=1k

**** RESUMING test.cir ****
.END

ERROR(ORPSIM-15143): Voltage source and/or inductor loop involving V_V1. You may break the loop by adding a series resistance
