
**** 08/22/23 11:55:06 ******* PSpice 17.4.0 (Nov 2018) ******* ID# 0 ********

 ** Profile: "SCHEMATIC1-Tran"  [ D:\Ian_Jung\workplace\PSpice\7404_Oscillator-PSpiceFiles\SCHEMATIC1\Tran.sim ] 


 ****     CIRCUIT DESCRIPTION


******************************************************************************




** Creating circuit file "Tran.cir" 
** WARNING: THIS AUTOMATICALLY GENERATED FILE MAY BE OVERWRITTEN BY SUBSEQUENT SIMULATIONS

*Libraries: 
* Profile Libraries :
* Local Libraries :
* From [PSPICE NETLIST] section of C:\SPB_Data\cdssetup\OrCAD_PSpice\17.4.0\PSpice.ini file:
.lib "nom.lib" 

*Analysis directives: 
.TRAN  0 1u 0 1n 
.OPTIONS ADVCONV
.PROBE64 V(alias(*)) I(alias(*)) W(alias(*)) D(alias(*)) NOISE(alias(*)) 
.INC "..\SCHEMATIC1.net" 



**** INCLUDING SCHEMATIC1.net ****
* source 7404_OSCILLATOR
X_U1A         N14915 N14957 $G_DPWR $G_DGND 7404 PARAMS:
+ IO_LEVEL=0 MNTYMXDLY=0
X_U1B         N14957 N14961 $G_DPWR $G_DGND 7404 PARAMS:
+ IO_LEVEL=0 MNTYMXDLY=0
X_U1C         N14961 N14915 $G_DPWR $G_DGND 7404 PARAMS:
+ IO_LEVEL=0 MNTYMXDLY=0
X_U1D         N14965 N14974 $G_DPWR $G_DGND 7404 PARAMS:
+ IO_LEVEL=0 MNTYMXDLY=0
X_U1E         N14974 N14978 $G_DPWR $G_DGND 7404 PARAMS:
+ IO_LEVEL=0 MNTYMXDLY=0
X_U1F         N14978 N14982 $G_DPWR $G_DGND 7404 PARAMS:
+ IO_LEVEL=0 MNTYMXDLY=0
X_U2A         N14982 N14986 $G_DPWR $G_DGND 7404 PARAMS:
+ IO_LEVEL=0 MNTYMXDLY=0
X_U2B         N14986 N14965 $G_DPWR $G_DGND 7404 PARAMS:
+ IO_LEVEL=0 MNTYMXDLY=0
X_U2C         N15027 N15086 $G_DPWR $G_DGND 7404 PARAMS:
+ IO_LEVEL=0 MNTYMXDLY=0
X_U2D         N15086 N15090 $G_DPWR $G_DGND 7404 PARAMS:
+ IO_LEVEL=0 MNTYMXDLY=0
X_U2E         N15090 N15094 $G_DPWR $G_DGND 7404 PARAMS:
+ IO_LEVEL=0 MNTYMXDLY=0
X_U2F         N15094 N15098 $G_DPWR $G_DGND 7404 PARAMS:
+ IO_LEVEL=0 MNTYMXDLY=0
X_U3A         N15098 N15102 $G_DPWR $G_DGND 7404 PARAMS:
+ IO_LEVEL=0 MNTYMXDLY=0
X_U3B         N15102 N15106 $G_DPWR $G_DGND 7404 PARAMS:
+ IO_LEVEL=0 MNTYMXDLY=0
X_U3C         N15106 N15027 $G_DPWR $G_DGND 7404 PARAMS:
+ IO_LEVEL=0 MNTYMXDLY=0
.IC         V(N14915 )=0
.IC         V(N14965 )=0
.IC         V(N15027 )=0

**** RESUMING Tran.cir ****
.END


**** Generated AtoD and DtoA Interfaces ****

*
* Analog/Digital interface for node N14915
*
* Moving X_U1A.U1:IN1 from analog node N14915 to new digital node N14915$AtoD
X$N14915_AtoD1
+ N14915
+ N14915$AtoD
+ $G_DPWR
+ $G_DGND
+ AtoD_STD
+       PARAMS: CAPACITANCE=   0     
* Moving X_U1C.U1:OUT1 from analog node N14915 to new digital node N14915$DtoA
X$N14915_DtoA1
+ N14915$DtoA
+ N14915
+ $G_DPWR
+ $G_DGND
+ DtoA_STD
+       PARAMS: DRVH=  96.4   DRVL= 104    CAPACITANCE=   0     
*
* Analog/Digital interface for node N14965
*
* Moving X_U1D.U1:IN1 from analog node N14965 to new digital node N14965$AtoD
X$N14965_AtoD1
+ N14965
+ N14965$AtoD
+ $G_DPWR
+ $G_DGND
+ AtoD_STD
+       PARAMS: CAPACITANCE=   0     
* Moving X_U2B.U1:OUT1 from analog node N14965 to new digital node N14965$DtoA
X$N14965_DtoA1
+ N14965$DtoA
+ N14965
+ $G_DPWR
+ $G_DGND
+ DtoA_STD
+       PARAMS: DRVH=  96.4   DRVL= 104    CAPACITANCE=   0     
*
* Analog/Digital interface for node N15027
*
* Moving X_U2C.U1:IN1 from analog node N15027 to new digital node N15027$AtoD
X$N15027_AtoD1
+ N15027
+ N15027$AtoD
+ $G_DPWR
+ $G_DGND
+ AtoD_STD
+       PARAMS: CAPACITANCE=   0     
* Moving X_U3C.U1:OUT1 from analog node N15027 to new digital node N15027$DtoA
X$N15027_DtoA1
+ N15027$DtoA
+ N15027
+ $G_DPWR
+ $G_DGND
+ DtoA_STD
+       PARAMS: DRVH=  96.4   DRVL= 104    CAPACITANCE=   0     
*
* Analog/Digital interface power supply subcircuits
*
X$DIGIFPWR 0 DIGIFPWR


**** 08/22/23 11:55:06 ******* PSpice 17.4.0 (Nov 2018) ******* ID# 0 ********

 ** Profile: "SCHEMATIC1-Tran"  [ D:\Ian_Jung\workplace\PSpice\7404_Oscillator-PSpiceFiles\SCHEMATIC1\Tran.sim ] 


 ****     Diode MODEL PARAMETERS


******************************************************************************




               D74CLMP         D74             
          IS    1.000000E-15  100.000000E-18 
          RS    2              25            
         CJO    2.000000E-12    2.000000E-12 


**** 08/22/23 11:55:06 ******* PSpice 17.4.0 (Nov 2018) ******* ID# 0 ********

 ** Profile: "SCHEMATIC1-Tran"  [ D:\Ian_Jung\workplace\PSpice\7404_Oscillator-PSpiceFiles\SCHEMATIC1\Tran.sim ] 


 ****     BJT MODEL PARAMETERS


******************************************************************************




               Q74             
               NPN             
       LEVEL    1            
          IS  100.000000E-18 
          BF   49            
          NF    1            
         ISE  100.000000E-18 
          BR     .03         
          NR    1            
         ISC  400.000000E-18 
         ISS    0            
          RB   50            
          RE    0            
          RC   20            
         CJE    1.000000E-12 
         VJE     .9          
         MJE     .5          
         CJC  500.000000E-15 
         VJC     .8          
         MJC     .33         
        XCJC    1            
         CJS    3.000000E-12 
         VJS     .7          
         MJS     .33         
          TF  200.000000E-12 
          TR   10.000000E-09 
          KF    0            
          AF    1            
          CN    2.42         
           D     .87         


**** 08/22/23 11:55:06 ******* PSpice 17.4.0 (Nov 2018) ******* ID# 0 ********

 ** Profile: "SCHEMATIC1-Tran"  [ D:\Ian_Jung\workplace\PSpice\7404_Oscillator-PSpiceFiles\SCHEMATIC1\Tran.sim ] 


 ****     Digital Input MODEL PARAMETERS


******************************************************************************




               DIN74           
      S0NAME 0               
       S0TSW    3.500000E-09 
       S0RLO    7.13         
       S0RHI  389            
      S1NAME 1               
       S1TSW    5.500000E-09 
       S1RLO  467            
       S1RHI  200            
      S2NAME X               
       S2TSW    3.500000E-09 
       S2RLO   42.9          
       S2RHI  116            
      S3NAME R               
       S3TSW    3.500000E-09 
       S3RLO   42.9          
       S3RHI  116            
      S4NAME F               
       S4TSW    3.500000E-09 
       S4RLO   42.9          
       S4RHI  116            
      S5NAME Z               
       S5TSW    3.500000E-09 
       S5RLO  200.000000E+03 
       S5RHI  200.000000E+03 


**** 08/22/23 11:55:06 ******* PSpice 17.4.0 (Nov 2018) ******* ID# 0 ********

 ** Profile: "SCHEMATIC1-Tran"  [ D:\Ian_Jung\workplace\PSpice\7404_Oscillator-PSpiceFiles\SCHEMATIC1\Tran.sim ] 


 ****     Digital Output MODEL PARAMETERS


******************************************************************************




               DO74            
    TIMESTEP  100.000000E-12 
      S0NAME X               
       S0VHI    2            
       S0VLO     .8          
      S1NAME 0               
       S1VHI     .8          
       S1VLO   -1.5          
      S2NAME R               
       S2VHI    1.4          
       S2VLO     .8          
      S3NAME R               
       S3VHI    2            
       S3VLO    1.3          
      S4NAME X               
       S4VHI    2            
       S4VLO     .8          
      S5NAME 1               
       S5VHI    7            
       S5VLO    2            
      S6NAME F               
       S6VHI    2            
       S6VLO    1.3          
      S7NAME F               
       S7VHI    1.4          
       S7VLO     .8          


**** 08/22/23 11:55:06 ******* PSpice 17.4.0 (Nov 2018) ******* ID# 0 ********

 ** Profile: "SCHEMATIC1-Tran"  [ D:\Ian_Jung\workplace\PSpice\7404_Oscillator-PSpiceFiles\SCHEMATIC1\Tran.sim ] 


 ****     Digital Gate MODEL PARAMETERS


******************************************************************************




               D_04            
      TPLHMN    4.800000E-09 
      TPLHTY   12.000000E-09 
      TPLHMX   22.000000E-09 
      TPHLMN    3.200000E-09 
      TPHLTY    8.000000E-09 
      TPHLMX   15.000000E-09 


**** 08/22/23 11:55:06 ******* PSpice 17.4.0 (Nov 2018) ******* ID# 0 ********

 ** Profile: "SCHEMATIC1-Tran"  [ D:\Ian_Jung\workplace\PSpice\7404_Oscillator-PSpiceFiles\SCHEMATIC1\Tran.sim ] 


 ****     Digital IO  MODEL PARAMETERS


******************************************************************************




               IO_STD          
        DRVL  104            
        DRVH   96.4          
       AtoD1 AtoD_STD        
       AtoD2 AtoD_STD_NX     
       AtoD3 AtoD_STD        
       AtoD4 AtoD_STD_NX     
       DtoA1 DtoA_STD        
       DtoA2 DtoA_STD        
       DtoA3 DtoA_STD        
       DtoA4 DtoA_STD        
      TSWHL1    1.511000E-09 
      TSWHL2    1.487000E-09 
      TSWHL3    1.511000E-09 
      TSWHL4    1.487000E-09 
      TSWLH1    3.517000E-09 
      TSWLH2    3.564000E-09 
      TSWLH3    3.517000E-09 
      TSWLH4    3.564000E-09 
       TPWRT  100.000000E+03 


**** 08/22/23 11:55:06 ******* PSpice 17.4.0 (Nov 2018) ******* ID# 0 ********

 ** Profile: "SCHEMATIC1-Tran"  [ D:\Ian_Jung\workplace\PSpice\7404_Oscillator-PSpiceFiles\SCHEMATIC1\Tran.sim ] 


 ****     INITIAL TRANSIENT SOLUTION       TEMPERATURE =   27.000 DEG C


******************************************************************************



 NODE   VOLTAGE     NODE   VOLTAGE     NODE   VOLTAGE     NODE   VOLTAGE


(N14915) 52.09E-06 (N14965) 52.09E-06 (N15027) 52.09E-06 ($G_DGND)    0.0000    

($G_DPWR)    5.0000                   (X$N14915_AtoD1.1)     .0915              

(X$N14915_AtoD1.2)     .0458          (X$N14915_AtoD1.3)     .8277              

(X$N14965_AtoD1.1)     .0915          (X$N14965_AtoD1.2)     .0458              

(X$N14965_AtoD1.3)     .8277          (X$N15027_AtoD1.1)     .0915              

(X$N15027_AtoD1.2)     .0458          (X$N15027_AtoD1.3)     .8277          



 DGTL NODE : STATE  DGTL NODE : STATE  DGTL NODE : STATE  DGTL NODE : STATE


(N14915$AtoD) : 0  (N14965$AtoD) : 0  (  N15090) : 0     (  N15106) : 0         

(N15027$AtoD) : 0  (  N15094) : 1     (  N14957) : 1     (  N14974) : 1         

(N15027$DtoA) : 1  (  N14982) : 1     (  N15098) : 0     (  N14961) : 0         

(N14915$DtoA) : 1  (  N14978) : 0     (  N14986) : 0     (  N15102) : 1         

(N14965$DtoA) : 1  (  N15086) : 1     




    VOLTAGE SOURCE CURRENTS
    NAME         CURRENT

    X$DIGIFPWR.VDPWR  -7.813E-02
    X$DIGIFPWR.VDGND  -7.813E-02

    TOTAL POWER DISSIPATION   3.91E-01  WATTS



          JOB CONCLUDED

**** 08/22/23 11:55:06 ******* PSpice 17.4.0 (Nov 2018) ******* ID# 0 ********

 ** Profile: "SCHEMATIC1-Tran"  [ D:\Ian_Jung\workplace\PSpice\7404_Oscillator-PSpiceFiles\SCHEMATIC1\Tran.sim ] 


 ****     JOB STATISTICS SUMMARY


******************************************************************************



  Total job time (using Solver 1)   =         .16
