
**** 08/02/23 10:56:53 ******* PSpice 17.4.0 (Nov 2018) ******* ID# 0 ********

 ** Profile: "SCHEMATIC1-bias"  [ D:\Ian_Jung\workplace\PSpice\fet_amp-pspicefiles\schematic1\bias.sim ] 


 ****     CIRCUIT DESCRIPTION


******************************************************************************




** Creating circuit file "bias.cir" 
** WARNING: THIS AUTOMATICALLY GENERATED FILE MAY BE OVERWRITTEN BY SUBSEQUENT SIMULATIONS

*Libraries: 
* Profile Libraries :
* Local Libraries :
* From [PSPICE NETLIST] section of C:\SPB_Data\cdssetup\OrCAD_PSpice\17.4.0\PSpice.ini file:
.lib "nom.lib" 

*Analysis directives: 
.OPTIONS ADVCONV
.PROBE64 V(alias(*)) I(alias(*)) W(alias(*)) D(alias(*)) NOISE(alias(*)) 
.INC "..\SCHEMATIC1.net" 



**** INCLUDING SCHEMATIC1.net ****
* source FET_AMP
R_Rsi         IN N14527  0.1k TC=0,0 
R_R1         N14560 N14611  4700k TC=0,0 
R_R2         0 N14560  4700k TC=0,0 
R_Rd         N14635 N14611  6k TC=0,0 
R_Rs         0 N14639  2.4k TC=0,0 
R_RL         0 N14672  10k TC=0,0 
C_C1         N14527 N14560  3u  TC=0,0 
C_C3         N14635 N14672  4u  TC=0,0 
C_Cs         0 N14639  75u  TC=0,0 
V_V2         N14611 0 5V
V_V1         IN 0  AC 1
+SIN 0 1mV 10k 0 0 0
M_M1         N14635 N14560 N14639 N14639 M2N7000
V_CONST1         VGS 0 DC {2.5-0.6764}
V_CONST2         VCC / RD 0 DC {5/8.4}
-----------------------$
ERROR -- Expecting keyword STIMULUS, saw RD.


**** RESUMING bias.cir ****
.END
