
**** 08/04/23 12:20:31 ******* PSpice 17.4.0 (Nov 2018) ******* ID# 0 ********

 ** Profile: "SCHEMATIC1-AC_Curve"  [ D:\Ian_Jung\workplace\PSpice\NPN_1-PSpiceFiles\SCHEMATIC1\AC_Curve.sim ] 


 ****     CIRCUIT DESCRIPTION


******************************************************************************




** Creating circuit file "AC_Curve.cir" 
** WARNING: THIS AUTOMATICALLY GENERATED FILE MAY BE OVERWRITTEN BY SUBSEQUENT SIMULATIONS

*Libraries: 
* Profile Libraries :
* Local Libraries :
* From [PSPICE NETLIST] section of C:\SPB_Data\cdssetup\OrCAD_PSpice\17.4.0\PSpice.ini file:
.lib "nom.lib" 

*Analysis directives: 
.AC DEC 101 0 100MHz
------------$
ERROR(ORPSIM-16103): Invalid value
.OPTIONS ADVCONV
.PROBE64 V(alias(*)) I(alias(*)) W(alias(*)) D(alias(*)) NOISE(alias(*)) 
.INC "..\SCHEMATIC1.net" 



**** INCLUDING SCHEMATIC1.net ****
* source NPN_1
V_Vsig         IN 0  AC 1
+SIN 0 1mV 10k 0 0 0
R_R1         IN N14565  1k TC=0,0 
R_RB1         N14569 N14624  49k TC=0,0 
R_RB2         0 N14569  27k TC=0,0 
R_RC         N14620 N14624  5k TC=0,0 
R_RE         0 N14735  1.8k TC=0,0 
R_RL         0 OUT  1k TC=0,0 
C_C1         N14565 N14569  3u  TC=0,0 
C_CC         N14620 OUT  4u  TC=0,0 
V_VDC         N14624 0 5V
Q_Q1         N14620 N14569 N14735 Q2N2222
C_C2         0 N14735  75u  TC=0,0 

**** RESUMING AC_Curve.cir ****
.END
