
**** 07/24/23 10:41:22 ******* PSpice 17.4.0 (Nov 2018) ******* ID# 0 ********

 ** Profile: "SCHEMATIC1-e1"  [ D:\Ian_Jung\workplace\PSpice\Electric-PSpiceFiles\SCHEMATIC1\e1.sim ] 


 ****     CIRCUIT DESCRIPTION


******************************************************************************




** Creating circuit file "e1.cir" 
** WARNING: THIS AUTOMATICALLY GENERATED FILE MAY BE OVERWRITTEN BY SUBSEQUENT SIMULATIONS

*Libraries: 
* Profile Libraries :
* Local Libraries :
* From [PSPICE NETLIST] section of C:\SPB_Data\cdssetup\OrCAD_PSpice\17.4.0\PSpice.ini file:
.lib "nom.lib" 

*Analysis directives: 
.OPTIONS ADVCONV
.PROBE64 V(alias(*)) I(alias(*)) W(alias(*)) D(alias(*)) NOISE(alias(*)) 
.INC "..\SCHEMATIC1.net" 



**** INCLUDING SCHEMATIC1.net ****
* source ELECTRIC
R_R1         N14833 N14815  {R} TC=0,0 
R_R2         N14837 N14833  {R} TC=0,0 
R_R3         N14862 N14876  {R} TC=0,0 
R_R4         N14876 N14844  {R} TC=0,0 
R_R11         N14862 N14815  {R} TC=0,0 
R_R9         N14911 N14833  R TC=0,0 
------------------------------$
ERROR(ORPSIM-16152): Invalid number: Error while converting token 'TC' to double value. Token can be a constant or expression
R_R7         N14844 N14837  {R} TC=0,0 
R_R12         0 N14862  {R} TC=0,0 
R_R8         N14846 N14844  {R} TC=0,0 
R_R10         N14851 N14911  R TC=0,0 
-------------------------------$
ERROR(ORPSIM-16152): Invalid number: Error while converting token 'TC' to double value. Token can be a constant or expression
R_R5         N14851 0  {R} TC=0,0 
R_R6         N14846 N14851  {R} TC=0,0 
I_I1         0 N14815 DC 1Adc  
.PARAM  r=1k

**** RESUMING e1.cir ****
.END
