
**** 08/01/23 14:45:56 ******* PSpice 17.4.0 (Nov 2018) ******* ID# 0 ********

 ** Profile: "SCHEMATIC1-Common_B"  [ D:\Ian_Jung\workplace\PSpice\Common_B-PSpiceFiles\SCHEMATIC1\Common_B.sim ] 


 ****     CIRCUIT DESCRIPTION


******************************************************************************




** Creating circuit file "Common_B.cir" 
** WARNING: THIS AUTOMATICALLY GENERATED FILE MAY BE OVERWRITTEN BY SUBSEQUENT SIMULATIONS

*Libraries: 
* Profile Libraries :
* Local Libraries :
* From [PSPICE NETLIST] section of C:\SPB_Data\cdssetup\OrCAD_PSpice\17.4.0\PSpice.ini file:
.lib "nom.lib" 

*Analysis directives: 
.TRAN  0 1m 0 0.005m 
.OPTIONS ADVCONV
.PROBE64 V(alias(*)) I(alias(*)) W(alias(*)) D(alias(*)) NOISE(alias(*)) 
.INC "..\SCHEMATIC1.net" 



**** INCLUDING SCHEMATIC1.net ****
* source COMMON_B
Q_Q1         N18738 N18326 N18424 Q2N2222
R_R2         N18276 N18326  56k TC=0,0 
R_R4         0 N18326  12k TC=0,0 
C_C1         0 N18326  3u  TC=0,0 
V_V2         N18276 0 10Vdc
R_R5         0 N18424  1k TC=0,0 
R_R7         N18276 N18738  22k TC=0,0 
R_R6         0 V0  10k TC=0,0 
C_C2         N18738 V0  4u  TC=0,0 
C_C3         N18424 N19649  3u  TC=0,0 
I_I2         N19750 0 DC 0Adc AC 0Aac
+SIN 0 1m 10k 0 0 0
R_R8         N19750 N19649  100 TC=0,0 

**** RESUMING Common_B.cir ****
.END

ERROR(ORPSIM-15142): Node N19649 is floating

ERROR(ORPSIM-15142): Node N19750 is floating
