
**** 07/17/23 20:28:44 ******* PSpice 17.4.0 (Nov 2018) ******* ID# 0 ********

 ** Profile: "SCHEMATIC1-AC_sweep"  [ D:\Ian_Jung\workplace\PSpice\part_7-pspicefiles\schematic1\ac_sweep.sim ] 


 ****     CIRCUIT DESCRIPTION


******************************************************************************




** Creating circuit file "AC_sweep.cir" 
** WARNING: THIS AUTOMATICALLY GENERATED FILE MAY BE OVERWRITTEN BY SUBSEQUENT SIMULATIONS

*Libraries: 
* Profile Libraries :
* Local Libraries :
* From [PSPICE NETLIST] section of C:\SPB_Data\cdssetup\OrCAD_PSpice\17.4.0\PSpice.ini file:
.lib "nom.lib" 

*Analysis directives: 
.AC DEC 101 1 1meg
.OPTIONS ADVCONV
.PROBE64 V(alias(*)) I(alias(*)) W(alias(*)) D(alias(*)) NOISE(alias(*)) 
.INC "..\SCHEMATIC1.net" 



**** INCLUDING SCHEMATIC1.net ****
* source PART_7
V_V1         N14693 N14827 0Vdc
V_V2         N14710 N14827 0Vdc
V_V3         N14722 N14827 0Vdc
V_V4         N14747 N14827 0Vdc
R_R1         N14702 N14693  50 TC=0,0 
R_R2         N14714 N14710  50 TC=0,0 
R_R3         N15255 N14722  50 TC=0,0 
R_R4         N14743 N14747  50 TC=0,0 
L_L1         N14702 N14706  5m  
L_L2         N14714 N14718  10m  
L_L3         N15255 N14735  15m  
L_L4         N14743 N14739  20m  
C_C1         0 N14706  1u  TC=0,0 
C_C2         0 N14718  1u  TC=0,0 
C_C3         0 N14735  1u  TC=0,0 
C_C4         0 N14739  1u  TC=0,0 
V_V5         N14827 0 DC 0Vdc AC 1Vac 

**** RESUMING AC_sweep.cir ****
.END

**** 07/17/23 20:28:44 ******* PSpice 17.4.0 (Nov 2018) ******* ID# 0 ********

 ** Profile: "SCHEMATIC1-AC_sweep"  [ D:\Ian_Jung\workplace\PSpice\part_7-pspicefiles\schematic1\ac_sweep.sim ] 


 ****     SMALL SIGNAL BIAS SOLUTION       TEMPERATURE =   27.000 DEG C


******************************************************************************



 NODE   VOLTAGE     NODE   VOLTAGE     NODE   VOLTAGE     NODE   VOLTAGE


(N14693)    0.0000 (N14702)    0.0000 (N14706)    0.0000 (N14710)    0.0000     

(N14714)    0.0000 (N14718)    0.0000 (N14722)    0.0000 (N14735)    0.0000     

(N14739)    0.0000 (N14743)    0.0000 (N14747)    0.0000 (N14827)    0.0000     

(N15255)    0.0000 




    VOLTAGE SOURCE CURRENTS
    NAME         CURRENT

    V_V1         0.000E+00
    V_V2         0.000E+00
    V_V3         0.000E+00
    V_V4         0.000E+00
    V_V5         0.000E+00

    TOTAL POWER DISSIPATION   0.00E+00  WATTS



          JOB CONCLUDED

**** 07/17/23 20:28:44 ******* PSpice 17.4.0 (Nov 2018) ******* ID# 0 ********

 ** Profile: "SCHEMATIC1-AC_sweep"  [ D:\Ian_Jung\workplace\PSpice\part_7-pspicefiles\schematic1\ac_sweep.sim ] 


 ****     JOB STATISTICS SUMMARY


******************************************************************************



  Total job time (using Solver 1)   =         .02
