
**** 07/31/23 16:37:36 ******* PSpice 17.4.0 (Nov 2018) ******* ID# 0 ********

 ** Profile: "SCHEMATIC1-test1"  [ D:\Ian_Jung\workplace\PSpice\Diode_Exam_3-PSpiceFiles\SCHEMATIC1\test1.sim ] 


 ****     CIRCUIT DESCRIPTION


******************************************************************************




** Creating circuit file "test1.cir" 
** WARNING: THIS AUTOMATICALLY GENERATED FILE MAY BE OVERWRITTEN BY SUBSEQUENT SIMULATIONS

*Libraries: 
* Profile Libraries :
* Local Libraries :
* From [PSPICE NETLIST] section of C:\SPB_Data\cdssetup\OrCAD_PSpice\17.4.0\PSpice.ini file:
.lib "nom.lib" 

*Analysis directives: 
.TRAN  0 20u 0 
.OPTIONS ADVCONV
.PROBE64 V(alias(*)) I(alias(*)) W(alias(*)) D(alias(*)) NOISE(alias(*)) 
.INC "..\SCHEMATIC1.net" 



**** INCLUDING SCHEMATIC1.net ****
* source DIODE_EXAM_3
V_V2         ESD1 N14760  
+PULSE 0 1kV 1u 1u 1u 1n 20u
V_V3         0 N14760  
+PULSE 0 1kV 4u 1u 1u 1n 20u
R_R3         ESD1 UNI  50 TC=0,0 
R_R4         0 UNI  100k TC=0,0 
D_D3         0 UNI D1N750 
V_V4         ESD2 N16315  
+PULSE 0 1kV 1u 1u 1u 1n 20u
V_V5         0 N16315  
+PULSE 0 1kV 4u 1u 1u 1n 20u
R_R6         0 BI  100k TC=0,0 
D_D4         0 N16562 D1N750 
R_R5         ESD2 BI  50 TC=0,0 
D_D5         BI N16562 D1N750 

**** RESUMING test1.cir ****
.END

**** 07/31/23 16:37:36 ******* PSpice 17.4.0 (Nov 2018) ******* ID# 0 ********

 ** Profile: "SCHEMATIC1-test1"  [ D:\Ian_Jung\workplace\PSpice\Diode_Exam_3-PSpiceFiles\SCHEMATIC1\test1.sim ] 


 ****     Diode MODEL PARAMETERS


******************************************************************************




               D1N750          
          IS  880.500000E-18 
         ISR    1.859000E-09 
          BV    4.7          
         IBV     .020245     
         NBV    1.6989       
        IBVL    1.955600E-03 
        NBVL   14.976        
          RS     .25         
         CJO  175.000000E-12 
          VJ     .75         
           M     .5516       
        TBV1  -21.277000E-06 


**** 07/31/23 16:37:36 ******* PSpice 17.4.0 (Nov 2018) ******* ID# 0 ********

 ** Profile: "SCHEMATIC1-test1"  [ D:\Ian_Jung\workplace\PSpice\Diode_Exam_3-PSpiceFiles\SCHEMATIC1\test1.sim ] 


 ****     INITIAL TRANSIENT SOLUTION       TEMPERATURE =   27.000 DEG C


******************************************************************************



 NODE   VOLTAGE     NODE   VOLTAGE     NODE   VOLTAGE     NODE   VOLTAGE


(   BI)    0.0000  (  UNI)-886.1E-21  ( ESD1)    0.0000  ( ESD2)    0.0000      

(N14760)    0.0000 (N16315)    0.0000 (N16562)-376.7E-18 




    VOLTAGE SOURCE CURRENTS
    NAME         CURRENT

    V_V2        -1.772E-20
    V_V3         1.772E-20
    V_V4         0.000E+00
    V_V5         0.000E+00

    TOTAL POWER DISSIPATION   0.00E+00  WATTS



          JOB CONCLUDED

**** 07/31/23 16:37:36 ******* PSpice 17.4.0 (Nov 2018) ******* ID# 0 ********

 ** Profile: "SCHEMATIC1-test1"  [ D:\Ian_Jung\workplace\PSpice\Diode_Exam_3-PSpiceFiles\SCHEMATIC1\test1.sim ] 


 ****     JOB STATISTICS SUMMARY


******************************************************************************



  License check-out time            =         .69
  Total job time (using Solver 1)   =         .03
