
**** 07/21/23 12:55:44 ******* PSpice 17.4.0 (Nov 2018) ******* ID# 0 ********

 ** Profile: "SCHEMATIC1-bias"  [ D:\Ian_Jung\workplace\PSpice\Lib_check-PSpiceFiles\SCHEMATIC1\bias.sim ] 


 ****     CIRCUIT DESCRIPTION


******************************************************************************




** Creating circuit file "bias.cir" 
** WARNING: THIS AUTOMATICALLY GENERATED FILE MAY BE OVERWRITTEN BY SUBSEQUENT SIMULATIONS

*Libraries: 
* Profile Libraries :
* Local Libraries :
.LIB "../../../library/tttttest.lib" 
* From [PSPICE NETLIST] section of C:\SPB_Data\cdssetup\OrCAD_PSpice\17.4.0\PSpice.ini file:
.lib "nom.lib" 

*Analysis directives: 
.TRAN  0 60Ms 0 SKIPBP 
.OPTIONS ADVCONV
.PROBE64 V(alias(*)) I(alias(*)) W(alias(*)) D(alias(*)) NOISE(alias(*)) 
.INC "..\SCHEMATIC1.net" 



**** INCLUDING SCHEMATIC1.net ****
* source LIB_CHECK
C_C3         N24669 DC_SEC2  220u  TC=0,0 
C_C2         N24245 DC_SEC1  680u  TC=0,0 
R_R19         N24245 DC_SEC1  1k TC=0,0 
D_D1         N24245 AC_SEC1 D1N4004 
D_D6         AC_SEC DC_SEC2 D1N4004 
D_D2         AC_SEC1 DC_SEC1 D1N4004 
V_V4         0 AC_IN  
+SIN 0 230 60 0 0 0
D_D7         N24669 N24355 D1N4004 
D_D3         N24245 N24355 D1N4004 
D_D8         N24355 DC_SEC2 D1N4004 
R_R20         N24669 DC_SEC2  1k TC=0,0 
D_D4         N24355 DC_SEC1 D1N4004 
D_D5         N24669 AC_SEC D1N4004 
X_U1         N24355 AC_IN AC_SEC AC_SEC1 0 TESTSCHEMATIC

**** RESUMING bias.cir ****
.END

**** 07/21/23 12:55:44 ******* PSpice 17.4.0 (Nov 2018) ******* ID# 0 ********

 ** Profile: "SCHEMATIC1-bias"  [ D:\Ian_Jung\workplace\PSpice\Lib_check-PSpiceFiles\SCHEMATIC1\bias.sim ] 


 ****     Diode MODEL PARAMETERS


******************************************************************************




               D1N4004         D1N4001         
          IS   14.110000E-09   14.110000E-09 
           N    1.984           1.984        
         IKF   94.81           94.81         
          BV  600              75            
         IBV   10.000000E-06   10.000000E-06 
          RS     .03389          .03389      
          TT    5.700000E-06    5.700000E-06 
         CJO   25.890000E-12   25.890000E-12 
          VJ     .3245           .3245       
           M     .44             .44         


**** 07/21/23 12:55:44 ******* PSpice 17.4.0 (Nov 2018) ******* ID# 0 ********

 ** Profile: "SCHEMATIC1-bias"  [ D:\Ian_Jung\workplace\PSpice\Lib_check-PSpiceFiles\SCHEMATIC1\bias.sim ] 


 ****     Ferromagnetic Core MODEL PARAMETERS


******************************************************************************




               K1041T060_3E2A  K3E2A           
       LEVEL    2               2            
        AREA     .0202                       
        PATH    1.3                          
          MS  353.000000E+03  353.000000E+03 
           A   31.02           31.02         
           C     .7842           .7842       
           K   12.46           12.46         



          JOB CONCLUDED

**** 07/21/23 12:55:44 ******* PSpice 17.4.0 (Nov 2018) ******* ID# 0 ********

 ** Profile: "SCHEMATIC1-bias"  [ D:\Ian_Jung\workplace\PSpice\Lib_check-PSpiceFiles\SCHEMATIC1\bias.sim ] 


 ****     JOB STATISTICS SUMMARY


******************************************************************************



  License check-out time            =       65.03
  Total job time (using Solver 1)   =         .06
