
**** 08/01/23 11:12:22 ******* PSpice 17.4.0 (Nov 2018) ******* ID# 0 ********

 ** Profile: "SCHEMATIC1-IV_c"  [ D:\Ian_Jung\workplace\PSpice\NPN_IV_cur-PSpiceFiles\SCHEMATIC1\IV_c.sim ] 


 ****     CIRCUIT DESCRIPTION


******************************************************************************




** Creating circuit file "IV_c.cir" 
** WARNING: THIS AUTOMATICALLY GENERATED FILE MAY BE OVERWRITTEN BY SUBSEQUENT SIMULATIONS

*Libraries: 
* Profile Libraries :
* Local Libraries :
* From [PSPICE NETLIST] section of C:\SPB_Data\cdssetup\OrCAD_PSpice\17.4.0\PSpice.ini file:
.lib "nom.lib" 

*Analysis directives: 
.DC LIN V_V1 0 5 0.5 
.STEP DEC I_I1 0 20m 2m 
---------------$
ERROR(ORPSIM-16104): Invalid start value
.OPTIONS ADVCONV
.PROBE64 V(alias(*)) I(alias(*)) W(alias(*)) D(alias(*)) NOISE(alias(*)) 
.INC "..\SCHEMATIC1.net" 



**** INCLUDING SCHEMATIC1.net ****
* source NPN_IV_CUR
I_I1         0 N14450 DC 0Adc  
Q_Q1         N14457 N14450 0 Q2N2222
V_V1         N14457 0 0Vdc
Q_Q2         N14556 N14639 0 Q2N2222
V_V2         N14556 0 2Vdc
V_V3         N14639 0 0Vdc

**** RESUMING IV_c.cir ****
.END
