
**** 08/01/23 11:14:27 ******* PSpice 17.4.0 (Nov 2018) ******* ID# 0 ********

 ** Profile: "SCHEMATIC1-IV_c"  [ D:\Ian_Jung\workplace\PSpice\NPN_IV_cur-PSpiceFiles\SCHEMATIC1\IV_c.sim ] 


 ****     CIRCUIT DESCRIPTION


******************************************************************************




** Creating circuit file "IV_c.cir" 
** WARNING: THIS AUTOMATICALLY GENERATED FILE MAY BE OVERWRITTEN BY SUBSEQUENT SIMULATIONS

*Libraries: 
* Profile Libraries :
* Local Libraries :
* From [PSPICE NETLIST] section of C:\SPB_Data\cdssetup\OrCAD_PSpice\17.4.0\PSpice.ini file:
.lib "nom.lib" 

*Analysis directives: 
.DC LIN V_V1 0 5 0.05 
.STEP LIN I_I1 0 100u 10u 
.OPTIONS ADVCONV
.PROBE64 V(alias(*)) I(alias(*)) W(alias(*)) D(alias(*)) NOISE(alias(*)) 
.INC "..\SCHEMATIC1.net" 



**** INCLUDING SCHEMATIC1.net ****
* source NPN_IV_CUR
I_I1         0 N14450 DC 0Adc  
Q_Q1         N14457 N14450 0 Q2N2222
V_V1         N14457 0 0Vdc
Q_Q2         N14556 N14639 0 Q2N2222
V_V2         N14556 0 2Vdc
V_V3         N14639 0 0Vdc

**** RESUMING IV_c.cir ****
.END

**** 08/01/23 11:14:27 ******* PSpice 17.4.0 (Nov 2018) ******* ID# 0 ********

 ** Profile: "SCHEMATIC1-IV_c"  [ D:\Ian_Jung\workplace\PSpice\NPN_IV_cur-PSpiceFiles\SCHEMATIC1\IV_c.sim ] 


 ****     BJT MODEL PARAMETERS


******************************************************************************




               Q2N2222         
               NPN             
       LEVEL    1            
          IS   14.340000E-15 
          BF  255.9          
          NF    1            
         VAF   74.03         
         IKF     .2847       
         ISE   14.340000E-15 
          NE    1.307        
          BR    6.092        
          NR    1            
         ISS    0            
          RB   10            
          RE    0            
          RC    1            
         CJE   22.010000E-12 
         VJE     .75         
         MJE     .377        
         CJC    7.306000E-12 
         VJC     .75         
         MJC     .3416       
        XCJC    1            
         CJS    0            
         VJS     .75         
          TF  411.100000E-12 
         XTF    3            
         VTF    1.7          
         ITF     .6          
          TR   46.910000E-09 
         XTB    1.5          
          KF    0            
          AF    1            
          CN    2.42         
           D     .87         



          JOB CONCLUDED

**** 08/01/23 11:14:27 ******* PSpice 17.4.0 (Nov 2018) ******* ID# 0 ********

 ** Profile: "SCHEMATIC1-IV_c"  [ D:\Ian_Jung\workplace\PSpice\NPN_IV_cur-PSpiceFiles\SCHEMATIC1\IV_c.sim ] 


 ****     JOB STATISTICS SUMMARY

 ****     CURRENT STEP                     I_I1 =  100.0000E-06


******************************************************************************



  Total job time (using Solver 1)   =         .17
