
**** 08/29/23 11:00:01 ******* PSpice 17.4.0 (Nov 2018) ******* ID# 0 ********

 ** Profile: "SCHEMATIC1-DC_V"  [ D:\Ian_Jung\workplace\PSpice\LDO_3-PSpiceFiles\SCHEMATIC1\DC_V.sim ] 


 ****     CIRCUIT DESCRIPTION


******************************************************************************




** Creating circuit file "DC_V.cir" 
** WARNING: THIS AUTOMATICALLY GENERATED FILE MAY BE OVERWRITTEN BY SUBSEQUENT SIMULATIONS

*Libraries: 
* Profile Libraries :
* Local Libraries :
* From [PSPICE NETLIST] section of C:\SPB_Data\cdssetup\OrCAD_PSpice\17.4.0\PSpice.ini file:
.lib "nom.lib" 

*Analysis directives: 
.DC LIN V_V1 0 12 10m 
.OPTIONS ADVCONV
.PROBE64 V(alias(*)) I(alias(*)) W(alias(*)) D(alias(*)) NOISE(alias(*)) 
.INC "..\SCHEMATIC1.net" 



**** INCLUDING SCHEMATIC1.net ****
* source LDO_3
V_V1         N14335 0 12V
R_R1         0 N14435  {R2} TC=0,0 
R_R2         N14435 N14457  {R1} TC=0,0 
I_I1         N14457 0 DC 1A  
X_U2         N14335 N14435 N14457 NCP1117_ADJ1-X 
.PARAM  vref=1.25v r2=150 r1=180 ladj=5.2ma

**** RESUMING DC_V.cir ****
.END

ERROR(ORPSIM-15108): Subcircuit NCP1117_ADJ1-X used by X_U2 is undefined
