
**** 07/24/23 14:32:32 ******* PSpice 17.4.0 (Nov 2018) ******* ID# 0 ********

 ** Profile: "SCHEMATIC1-DC_sweep"  [ D:\Ian_Jung\workplace\PSpice\Electric_9-PSpiceFiles\SCHEMATIC1\DC_sweep.sim ] 


 ****     CIRCUIT DESCRIPTION


******************************************************************************




** Creating circuit file "DC_sweep.cir" 
** WARNING: THIS AUTOMATICALLY GENERATED FILE MAY BE OVERWRITTEN BY SUBSEQUENT SIMULATIONS

*Libraries: 
* Profile Libraries :
* Local Libraries :
* From [PSPICE NETLIST] section of C:\SPB_Data\cdssetup\OrCAD_PSpice\17.4.0\PSpice.ini file:
.lib "nom.lib" 

*Analysis directives: 
.DC LIN PARAM R 1m 5.0 1m 
.STEP LIN PARAM R 1m 5.0 1m 
.OPTIONS ADVCONV
.PROBE64 V(alias(*)) I(alias(*)) W(alias(*)) D(alias(*)) NOISE(alias(*)) 
.INC "..\SCHEMATIC1.net" 



**** INCLUDING SCHEMATIC1.net ****
* source ELECTRIC_9
U_DSTM1         STIM(1,1) $G_DPWR $G_DGND OUT IO_STM IO_LEVEL=0 
+ 0 0
+ +.5uS 1
+REPEAT FOREVER
+ +.5uS 0
+  +.5uS 1
+ ENDREPEAT
R_R1         0 OUT  {R} TC=0,0 
R_R2         N14725 N14732  {Rs} TC=0,0 
R_R3         0 N14732  {R} TC=0,0 
R_R4         N14773 0  {Rs} TC=0,0 
R_R5         N14773 0  {R} TC=0,0 
V_Vth         N14725 0 0Vdc
I_Inor         0 N14773 DC 0Adc  
V_CONST1         INOR 0 DC {5/0.5}
.PARAM  p=12.5 rs=0.5 r=0.5

**** RESUMING DC_sweep.cir ****
.END


**** Generated AtoD and DtoA Interfaces ****

*
* Analog/Digital interface for node OUT
*
* Moving U_DSTM1:OUT1 from analog node OUT to new digital node OUT$DtoA
X$OUT_DtoA1
+ OUT$DtoA
+ OUT
+ $G_DPWR
+ $G_DGND
+ DtoA_STM
+       PARAMS: DRVH=   0      DRVL=   0      CAPACITANCE=   0     
*
* Analog/Digital interface power supply subcircuits
*
X$DIGIFPWR 0 DIGIFPWR



ERROR(ORPSIM-15051): A device may appear in .DC and .STEP commands only once
