
**** 08/03/23 16:43:32 ******* PSpice 17.4.0 (Nov 2018) ******* ID# 0 ********

 ** Profile: "SCHEMATIC1-Tran"  [ D:\Ian_Jung\workplace\PSpice\OPAMP_2_Output_type-PSpiceFiles\SCHEMATIC1\Tran.sim ] 


 ****     CIRCUIT DESCRIPTION


******************************************************************************




** Creating circuit file "Tran.cir" 
** WARNING: THIS AUTOMATICALLY GENERATED FILE MAY BE OVERWRITTEN BY SUBSEQUENT SIMULATIONS

*Libraries: 
* Profile Libraries :
* Local Libraries :
.LIB "C:/Users/USER/OneDrive/ /ncs2200p.lib" 
* From [PSPICE NETLIST] section of C:\SPB_Data\cdssetup\OrCAD_PSpice\17.4.0\PSpice.ini file:

ERROR(ORPSIM-16276): Simulation cannot be completed because library C:/Users/USER/OneDrive/ /ncs2200p.lib 
is not available.
.lib "nom.lib" 

*Analysis directives: 
.TRAN  0 3m 0 10u 
.OPTIONS ADVCONV
.PROBE64 V(alias(*)) I(alias(*)) W(alias(*)) D(alias(*)) NOISE(alias(*)) 
.INC "..\SCHEMATIC1.net" 



**** INCLUDING SCHEMATIC1.net ****
* source OPAMP_2_OUTPUT_TYPE
X_U1         IN REF N14714 0 VCC NCS2202 
X_U2         IN REF N143582 0 VCC NCS2200 
V_V1         IN 0  
+SIN 2 1 1k 0 0 0
V_V2         VCC 0 5Vdc
R_R1         VCC REF  {R} TC=0,0 
R_R2         0 REF  {R} TC=0,0 
R_R3         N14714 VCC  10k TC=0,0 
R_R4         0 N143582  10k TC=0,0 
.PARAM  r=100k

**** RESUMING Tran.cir ****
.END
