
**** 07/21/23 15:36:07 ******* PSpice 17.4.0 (Nov 2018) ******* ID# 0 ********

 ** Profile: "SCHEMATIC1-Exam_8_1"  [ D:\Ian_Jung\workplace\PSpice\Exam_8_1-PSpiceFiles\SCHEMATIC1\Exam_8_1.sim ] 


 ****     CIRCUIT DESCRIPTION


******************************************************************************




** Creating circuit file "Exam_8_1.cir" 
** WARNING: THIS AUTOMATICALLY GENERATED FILE MAY BE OVERWRITTEN BY SUBSEQUENT SIMULATIONS

*Libraries: 
* Profile Libraries :
* Local Libraries :
* From [PSPICE NETLIST] section of C:\SPB_Data\cdssetup\OrCAD_PSpice\17.4.0\PSpice.ini file:
.lib "nom.lib" 

*Analysis directives: 
.TRAN  0 50m 0 
.MC 100 TRAN V(out0 YMAX OUTPUT ALL SEED=43 
.OPTIONS ADVCONV
.PROBE64 V(alias(*)) I(alias(*)) W(alias(*)) D(alias(*)) NOISE(alias(*)) 
.INC "..\SCHEMATIC1.net" 



**** INCLUDING SCHEMATIC1.net ****
* source EXAM_8_1
U_DSTM1         STIM(1,1)
+ $G_DPWR $G_DGND
+ A 
+ IO_STM
+ IO_LEVEL=0
+  0s 0  
+ 10us 1  
+ 20us 0  
U_DSTM2         STIM(4,1111)
+ $G_DPWR $G_DGND
+ B3 B2 B1 B0 
+ IO_STM
+ IO_LEVEL=0
+  0s 0000  
+ 10us 0011  
+ 20us 1100  
U_DSTM3         STIM(16,4444)
+ $G_DPWR $G_DGND
+ C15 C14 C13 C12 C11 C10 C9 C8 C7 C6 C5 C4 C3 C2 C1 C0 
+ IO_STM
+ IO_LEVEL=0
+  0s 0000  
+ 10us 00A0  
+ 20us 0A00  

**** RESUMING Exam_8_1.cir ****
.END


ERROR(ORPSIM-15090): MC device out0 is undefined
