
**** 07/31/23 11:35:04 ******* PSpice 17.4.0 (Nov 2018) ******* ID# 0 ********

 ** Profile: "SCHEMATIC1-filter_2"  [ D:\Ian_Jung\workplace\PSpice\Passive_filter_2-PSpiceFiles\SCHEMATIC1\filter_2.sim ] 


 ****     CIRCUIT DESCRIPTION


******************************************************************************




** Creating circuit file "filter_2.cir" 
** WARNING: THIS AUTOMATICALLY GENERATED FILE MAY BE OVERWRITTEN BY SUBSEQUENT SIMULATIONS

*Libraries: 
* Profile Libraries :
* Local Libraries :
* From [PSPICE NETLIST] section of C:\SPB_Data\cdssetup\OrCAD_PSpice\17.4.0\PSpice.ini file:
.lib "nom.lib" 

*Analysis directives: 
.AC DEC 1001 10 15meg
.OPTIONS ADVCONV
.PROBE64 V(alias(*)) I(alias(*)) W(alias(*)) D(alias(*)) NOISE(alias(*)) 
.INC "..\SCHEMATIC1.net" 



**** INCLUDING SCHEMATIC1.net ****
* source PASSIVE_FILTER_2
V_V1         N14469 0 DC 0Vdc AC 1Vac 
R_R1         N14469 N14476  50 TC=0,0 
L_L1         N14476 N14480  5.5uH  
L_L2         N14480 N14484  5.5uH  
C_C1         0 N14476  1.82n  TC=0,0 
C_C2         0 N14480  3.1n  TC=0,0 
C_C3         0 N14484  1.82n  TC=0,0 
R_R2         0 N14484  50 TC=0,0 

**** RESUMING filter_2.cir ****
.END

**** 07/31/23 11:35:04 ******* PSpice 17.4.0 (Nov 2018) ******* ID# 0 ********

 ** Profile: "SCHEMATIC1-filter_2"  [ D:\Ian_Jung\workplace\PSpice\Passive_filter_2-PSpiceFiles\SCHEMATIC1\filter_2.sim ] 


 ****     SMALL SIGNAL BIAS SOLUTION       TEMPERATURE =   27.000 DEG C


******************************************************************************



 NODE   VOLTAGE     NODE   VOLTAGE     NODE   VOLTAGE     NODE   VOLTAGE


(N14469)    0.0000 (N14476)    0.0000 (N14480)    0.0000 (N14484)    0.0000 




    VOLTAGE SOURCE CURRENTS
    NAME         CURRENT

    V_V1         0.000E+00

    TOTAL POWER DISSIPATION   0.00E+00  WATTS



          JOB CONCLUDED

**** 07/31/23 11:35:04 ******* PSpice 17.4.0 (Nov 2018) ******* ID# 0 ********

 ** Profile: "SCHEMATIC1-filter_2"  [ D:\Ian_Jung\workplace\PSpice\Passive_filter_2-PSpiceFiles\SCHEMATIC1\filter_2.sim ] 


 ****     JOB STATISTICS SUMMARY


******************************************************************************



  Total job time (using Solver 1)   =         .05
