
**** 08/01/23 11:39:19 ******* PSpice 17.4.0 (Nov 2018) ******* ID# 0 ********

 ** Profile: "SCHEMATIC1-BJT_IV_cur"  [ D:\Ian_Jung\workplace\PSpice\NPN_IV_cur-PSpiceFiles\SCHEMATIC1\BJT_IV_cur.sim ] 


 ****     CIRCUIT DESCRIPTION


******************************************************************************




** Creating circuit file "BJT_IV_cur.cir" 
** WARNING: THIS AUTOMATICALLY GENERATED FILE MAY BE OVERWRITTEN BY SUBSEQUENT SIMULATIONS

*Libraries: 
* Profile Libraries :
* Local Libraries :
* From [PSPICE NETLIST] section of C:\SPB_Data\cdssetup\OrCAD_PSpice\17.4.0\PSpice.ini file:
.lib "nom.lib" 

*Analysis directives: 
.DC LIN V_V1 0 5V 0.0005 
.STEP LIN I_I1 0 100u 10u 
.OPTIONS ADVCONV
.PROBE64 V(alias(*)) I(alias(*)) W(alias(*)) D(alias(*)) NOISE(alias(*)) 
.INC "..\SCHEMATIC1.net" 



**** INCLUDING SCHEMATIC1.net ****
* source NPN_IV_CUR
V_VBE         N14360 0 0Vdc
V_V2         N14367 0 2Vdc
Q_Q1         N14367 N14360 0 Q2N2222
Q_Q2         N14627 N14657 0 Q2N2222
V_V3         N14627 0 0Vdc
I_I1         0 N14657 DC 0Adc  

**** RESUMING BJT_IV_cur.cir ****
.END


ERROR(ORPSIM-15090): DC device V_V1 is undefined
