
**** 08/04/23 09:52:29 ******* PSpice 17.4.0 (Nov 2018) ******* ID# 0 ********

 ** Profile: "SCHEMATIC1-Tran"  [ D:\Ian_Jung\workplace\PSpice\CMOS_Inverter_1-PSpiceFiles\SCHEMATIC1\Tran.sim ] 


 ****     CIRCUIT DESCRIPTION


******************************************************************************




** Creating circuit file "Tran.cir" 
** WARNING: THIS AUTOMATICALLY GENERATED FILE MAY BE OVERWRITTEN BY SUBSEQUENT SIMULATIONS

*Libraries: 
* Profile Libraries :
* Local Libraries :
* From [PSPICE NETLIST] section of C:\SPB_Data\cdssetup\OrCAD_PSpice\17.4.0\PSpice.ini file:
.lib "nom.lib" 

*Analysis directives: 
.TRAN  0 10m 0 
.OPTIONS ADVCONV
.PROBE64 V(alias(*)) I(alias(*)) W(alias(*)) D(alias(*)) NOISE(alias(*)) 
.INC "..\SCHEMATIC1.net" 



**** INCLUDING SCHEMATIC1.net ****
* source CMOS_INVERTER_1
X_M1         N15499 IN N15582 BS250/PLP
X_M2         N15499 IN 0 2N7000/PLP
U_DSTM1         STIM(1,1) $G_DPWR $G_DGND IN IO_STM IO_LEVEL=0 
+ 0 0
+ +0 1
+REPEAT FOREVER
+ +.5mS 0
+  +.5mS 1
+ ENDREPEAT
V_V1         N15582 0 5Vdc
U_DSTM2         STIM(1,1) $G_DPWR $G_DGND N15753 IO_STM IO_LEVEL=0 
+ 0 0
+ +0 1
+REPEAT FOREVER
+ +.5mS 0
+  +.5mS 1
+ ENDREPEAT
V_V2         N15824 0 5Vdc
M_M3         N15783 N15753 0 0 MbreakN           
M_M4         N15783 N15753 N15824 N15824 MbreakP           

**** RESUMING Tran.cir ****
.END


**** Generated AtoD and DtoA Interfaces ****

*
* Analog/Digital interface for node N15753
*
* Moving U_DSTM2:OUT1 from analog node N15753 to new digital node N15753$DtoA
X$N15753_DtoA1
+ N15753$DtoA
+ N15753
+ $G_DPWR
+ $G_DGND
+ DtoA_STM
+       PARAMS: DRVH=   0      DRVL=   0      CAPACITANCE=   0     
*
* Analog/Digital interface for node IN
*
* Moving U_DSTM1:OUT1 from analog node IN to new digital node IN$DtoA
X$IN_DtoA1
+ IN$DtoA
+ IN
+ $G_DPWR
+ $G_DGND
+ DtoA_STM
+       PARAMS: DRVH=   0      DRVL=   0      CAPACITANCE=   0     
*
* Analog/Digital interface power supply subcircuits
*
X$DIGIFPWR 0 DIGIFPWR


**** 08/04/23 09:52:29 ******* PSpice 17.4.0 (Nov 2018) ******* ID# 0 ********

 ** Profile: "SCHEMATIC1-Tran"  [ D:\Ian_Jung\workplace\PSpice\CMOS_Inverter_1-PSpiceFiles\SCHEMATIC1\Tran.sim ] 


 ****     Diode MODEL PARAMETERS


******************************************************************************




               X_M1.Dbody      X_M2.Dbody      
          IS   75.320000E-15  125.000000E-15 
           N    1.016           1.023        
         IKF                   18.01         
          BV   45              60            
         IBV   10.000000E-06   10.000000E-06 
          RS    1.245           1.281        
          TT   86.560000E-09  161.600000E-09 
         CJO   53.220000E-12   46.300000E-12 
          VJ     .5392           .4519       
           M     .3583           .3423       


**** 08/04/23 09:52:29 ******* PSpice 17.4.0 (Nov 2018) ******* ID# 0 ********

 ** Profile: "SCHEMATIC1-Tran"  [ D:\Ian_Jung\workplace\PSpice\CMOS_Inverter_1-PSpiceFiles\SCHEMATIC1\Tran.sim ] 


 ****     MOSFET MODEL PARAMETERS


******************************************************************************




               MbreakN         MbreakP         X_M1.MOST1      X_M1.MOST2      
               NMOS            PMOS            PMOS            PMOS            
       LEVEL    1               1               3               1            
           L  100.000000E-06  100.000000E-06    2.000000E-06    2.000000E-06 
           W  100.000000E-06  100.000000E-06    7.600000E-03    7.600000E-03 
         VTO    0               0              -2.3             2.43         
          KP   20.000000E-06   20.000000E-06   10.330000E-06   10.330000E-06 
       GAMMA    0               0               0               0            
         PHI     .6              .6              .6              .6          
      LAMBDA    0               0               0               0            
          RD                                    4.014                        
          RS                                     .02             .02         
          IS   10.000000E-15   10.000000E-15   10.000000E-15   10.000000E-15 
          JS    0               0               0               0            
          PB     .8              .8              .8              .8          
        PBSW     .8              .8              .8              .8          
          CJ    0               0               0               0            
        CJSW    0               0               0               0            
        CGSO    0               0               0               0            
        CGDO    0               0               0               0            
        CGBO    0               0               0               0            
         TOX    0               0             100.000000E-09    0            
          XJ    0               0               0               0            
       UCRIT   10.000000E+03   10.000000E+03   10.000000E+03   10.000000E+03 
      DIOMOD    1               1               1               1            
         VFB    0               0               0               0            
        LETA    0               0               0               0            
        WETA    0               0               0               0            
          U0    0               0               0               0            
        TEMP    0               0               0               0            
         VDD    5               5               5               5            
       XPART    0               0               0               0            


               X_M2.MOST1      X_M2.MOST2      
               NMOS            NMOS            
       LEVEL    3               1            
           L    2.000000E-06    2.000000E-06 
           W    9.700000E-03    9.700000E-03 
         VTO    2              -4.73         
          KP   20.780000E-06   20.780000E-06 
       GAMMA    0               0            
         PHI     .6              .6          
      LAMBDA    0               0            
          RD    1.186                        
          RS     .02             .02         
          IS   10.000000E-15   10.000000E-15 
          JS    0               0            
          PB     .8              .8          
        PBSW     .8              .8          
          CJ    0               0            
        CJSW    0               0            
        CGSO    0               0            
        CGDO    0               0            
        CGBO    0               0            
         TOX  100.000000E-09    0            
          XJ    0               0            
       UCRIT   10.000000E+03   10.000000E+03 
      DIOMOD    1               1            
         VFB    0               0            
        LETA    0               0            
        WETA    0               0            
          U0    0               0            
        TEMP    0               0            
         VDD    5               5            
       XPART    0               0            


**** 08/04/23 09:52:29 ******* PSpice 17.4.0 (Nov 2018) ******* ID# 0 ********

 ** Profile: "SCHEMATIC1-Tran"  [ D:\Ian_Jung\workplace\PSpice\CMOS_Inverter_1-PSpiceFiles\SCHEMATIC1\Tran.sim ] 


 ****     Digital Input MODEL PARAMETERS


******************************************************************************




               DINSTM          
      S0NAME 0               
       S0TSW  500.000000E-12 
       S0RLO     .5          
       S0RHI    1.000000E+03 
      S1NAME 1               
       S1TSW  500.000000E-12 
       S1RLO    1.000000E+03 
       S1RHI     .5          
      S2NAME X               
       S2TSW  500.000000E-12 
       S2RLO     .429        
       S2RHI    1.16         
      S3NAME R               
       S3TSW  500.000000E-12 
       S3RLO     .429        
       S3RHI    1.16         
      S4NAME F               
       S4TSW  500.000000E-12 
       S4RLO     .429        
       S4RHI    1.16         
      S5NAME Z               
       S5TSW  500.000000E-12 
       S5RLO    1.000000E+06 
       S5RHI    1.000000E+06 


**** 08/04/23 09:52:29 ******* PSpice 17.4.0 (Nov 2018) ******* ID# 0 ********

 ** Profile: "SCHEMATIC1-Tran"  [ D:\Ian_Jung\workplace\PSpice\CMOS_Inverter_1-PSpiceFiles\SCHEMATIC1\Tran.sim ] 


 ****     Digital IO  MODEL PARAMETERS


******************************************************************************




               IO_STM          
        DRVL    0            
        DRVH    0            
       DtoA1 DtoA_STM        
       DtoA2 DtoA_STM        
       DtoA3 DtoA_STM        
       DtoA4 DtoA_STM        
       TPWRT  100.000000E+03 


**** 08/04/23 09:52:29 ******* PSpice 17.4.0 (Nov 2018) ******* ID# 0 ********

 ** Profile: "SCHEMATIC1-Tran"  [ D:\Ian_Jung\workplace\PSpice\CMOS_Inverter_1-PSpiceFiles\SCHEMATIC1\Tran.sim ] 


 ****     INITIAL TRANSIENT SOLUTION       TEMPERATURE =   27.000 DEG C


******************************************************************************



 NODE   VOLTAGE     NODE   VOLTAGE     NODE   VOLTAGE     NODE   VOLTAGE


(   IN)    4.9975  (N15499) 79.20E-12 (N15582)    5.0000 (N15753)    4.9975     

(N15783) 674.8E-09 (N15824)    5.0000 (X_M1.4)    2.5675 (X_M2.4) 79.20E-12     

($G_DGND)    0.0000                   ($G_DPWR)    5.0000                   



 DGTL NODE : STATE  DGTL NODE : STATE  DGTL NODE : STATE  DGTL NODE : STATE


( IN$DtoA) : 1     (N15753$DtoA) : 1  




    VOLTAGE SOURCE CURRENTS
    NAME         CURRENT

    V_V1        -1.756E-11
    V_V2        -6.745E-11
    X$DIGIFPWR.VDPWR  -1.000E-02
    X$DIGIFPWR.VDGND  -5.000E-06

    TOTAL POWER DISSIPATION   5.00E-02  WATTS



          JOB CONCLUDED

**** 08/04/23 09:52:29 ******* PSpice 17.4.0 (Nov 2018) ******* ID# 0 ********

 ** Profile: "SCHEMATIC1-Tran"  [ D:\Ian_Jung\workplace\PSpice\CMOS_Inverter_1-PSpiceFiles\SCHEMATIC1\Tran.sim ] 


 ****     JOB STATISTICS SUMMARY


******************************************************************************



  Total job time (using Solver 1)   =         .09
