
**** 08/02/23 14:24:16 ******* PSpice 17.4.0 (Nov 2018) ******* ID# 0 ********

 ** Profile: "SCHEMATIC1-Curve_1"  [ D:\Ian_Jung\workplace\PSpice\FET_gm_cal-PSpiceFiles\SCHEMATIC1\Curve_1.sim ] 


 ****     CIRCUIT DESCRIPTION


******************************************************************************




** Creating circuit file "Curve_1.cir" 
** WARNING: THIS AUTOMATICALLY GENERATED FILE MAY BE OVERWRITTEN BY SUBSEQUENT SIMULATIONS

*Libraries: 
* Profile Libraries :
* Local Libraries :
* From [PSPICE NETLIST] section of C:\SPB_Data\cdssetup\OrCAD_PSpice\17.4.0\PSpice.ini file:
.lib "nom.lib" 

*Analysis directives: 
.DC LIN V_VGS 0 2V 0.001 
.OPTIONS ADVCONV
.PROBE64 V(alias(*)) I(alias(*)) W(alias(*)) D(alias(*)) NOISE(alias(*)) 
.INC "..\SCHEMATIC1.net" 



**** INCLUDING SCHEMATIC1.net ****
* source FET_GM_CAL
V_VGS         N14360 0 0Vdc
V_VDS         N14391 0 3Vdc
M_M1         N14391 N14360 0 0 M2N7000

**** RESUMING Curve_1.cir ****
.END

**** 08/02/23 14:24:16 ******* PSpice 17.4.0 (Nov 2018) ******* ID# 0 ********

 ** Profile: "SCHEMATIC1-Curve_1"  [ D:\Ian_Jung\workplace\PSpice\FET_gm_cal-PSpiceFiles\SCHEMATIC1\Curve_1.sim ] 


 ****     MOSFET MODEL PARAMETERS


******************************************************************************




               M2N7000         
               NMOS            
       LEVEL    3            
           L    2.000000E-06 
           W     .12         
         VTO    1.73         
          KP    1.073000E-06 
       GAMMA    0            
         PHI     .6          
      LAMBDA    0            
          RD     .5489       
          RS     .02         
          RG  546.2          
          RB    1.000000E-03 
         RDS   48.000000E+06 
          IS   10.000000E-15 
          JS    0            
          PB     .8          
        PBSW     .8          
         CBD   74.460000E-12 
          CJ    0            
        CJSW    0            
        CGSO   73.610000E-12 
        CGDO    6.487000E-12 
        CGBO    0            
         TOX    2.000000E-06 
          XJ    0            
       UCRIT   10.000000E+03 
       DELTA    0            
         ETA    0            
      DIOMOD    1            
         VFB    0            
        LETA    0            
        WETA    0            
          U0    0            
        TEMP    0            
         VDD    5            
       XPART    0            



          JOB CONCLUDED

**** 08/02/23 14:24:16 ******* PSpice 17.4.0 (Nov 2018) ******* ID# 0 ********

 ** Profile: "SCHEMATIC1-Curve_1"  [ D:\Ian_Jung\workplace\PSpice\FET_gm_cal-PSpiceFiles\SCHEMATIC1\Curve_1.sim ] 


 ****     JOB STATISTICS SUMMARY


******************************************************************************



  License check-out time            =         .61
  Total job time (using Solver 1)   =         .05
