
**** 07/21/23 18:38:39 ******* PSpice 17.4.0 (Nov 2018) ******* ID# 0 ********

 ** Profile: "SCHEMATIC1-MC_WC_Exam"  [ D:\Ian_Jung\workplace\PSpice\Monte_Carlo-Worst_Case-PSpiceFiles\SCHEMATIC1\MC_WC_Exam.sim ] 


 ****     CIRCUIT DESCRIPTION


******************************************************************************




** Creating circuit file "MC_WC_Exam.cir" 
** WARNING: THIS AUTOMATICALLY GENERATED FILE MAY BE OVERWRITTEN BY SUBSEQUENT SIMULATIONS

*Libraries: 
* Profile Libraries :
* Local Libraries :
.LIB "../../../monte_carlo-worst_case-pspicefiles/monte_carlo-worst_case.lib" 
* From [PSPICE NETLIST] section of C:\SPB_Data\cdssetup\OrCAD_PSpice\17.4.0\PSpice.ini file:
.lib "nom.lib" 

*Analysis directives: 
.TRAN  0 50ms 0 
.MC 10 TRAN V([OUT]) YMAX OUTPUT ALL SEED=43 
.STEP LIN V_V1 9.5 10.5 0.1 
.OPTIONS ADVCONV
.PROBE64 V(alias(*)) I(alias(*)) W(alias(*)) D(alias(*)) NOISE(alias(*)) 
.INC "..\SCHEMATIC1.net" 



**** INCLUDING SCHEMATIC1.net ****
* source MONTE_CARLO-WORST_CASE
V_V1         IN 0  
+PULSE 0 10v 1m 1n 1n 10m 20m
V_V2         N14719 0 {VDC}
X_U1         N14530 N14684 N14719 0 OUT uA741
C_C1         0 N14530 Cbreak 0.1u 
R_R1         IN N14530 Rmonte 10k
R_R2         0 N14684 Rmonte {Rdown}
R_R3         N14684 N14719 Rmonte {Rup}
R_R4         0 OUT Rmonte 100k
.PARAM  rdown=6.3 vdc=10v rup=3.7

**** RESUMING MC_WC_Exam.cir ****
.END

**** 07/21/23 18:38:39 ******* PSpice 17.4.0 (Nov 2018) ******* ID# 0 ********

 ** Profile: "SCHEMATIC1-MC_WC_Exam"  [ D:\Ian_Jung\workplace\PSpice\Monte_Carlo-Worst_Case-PSpiceFiles\SCHEMATIC1\MC_WC_Exam.sim ] 


 ****     Diode MODEL PARAMETERS


******************************************************************************




               X_U1.dx         X_U1.dy         
          IS  800.000000E-18  800.000000E-18 
          RS    1               1.000000E-03 
         CJO                   10.000000E-12 


**** 07/21/23 18:38:39 ******* PSpice 17.4.0 (Nov 2018) ******* ID# 0 ********

 ** Profile: "SCHEMATIC1-MC_WC_Exam"  [ D:\Ian_Jung\workplace\PSpice\Monte_Carlo-Worst_Case-PSpiceFiles\SCHEMATIC1\MC_WC_Exam.sim ] 


 ****     BJT MODEL PARAMETERS


******************************************************************************




               X_U1.qx         
               NPN             
       LEVEL    1            
          IS  800.000000E-18 
          BF   93.75         
          NF    1            
          BR    1            
          NR    1            
         ISS    0            
          RE    0            
          RC    0            
         CJE    0            
         VJE     .75         
         CJC    0            
         VJC     .75         
         MJC     .33         
        XCJC    1            
         CJS    0            
         VJS     .75         
          KF    0            
          AF    1            
          CN    2.42         
           D     .87         


**** 07/21/23 18:38:39 ******* PSpice 17.4.0 (Nov 2018) ******* ID# 0 ********

 ** Profile: "SCHEMATIC1-MC_WC_Exam"  [ D:\Ian_Jung\workplace\PSpice\Monte_Carlo-Worst_Case-PSpiceFiles\SCHEMATIC1\MC_WC_Exam.sim ] 


 ****     Resistor MODEL PARAMETERS


******************************************************************************




               Rmonte          
           R    1            


**** 07/21/23 18:38:39 ******* PSpice 17.4.0 (Nov 2018) ******* ID# 0 ********

 ** Profile: "SCHEMATIC1-MC_WC_Exam"  [ D:\Ian_Jung\workplace\PSpice\Monte_Carlo-Worst_Case-PSpiceFiles\SCHEMATIC1\MC_WC_Exam.sim ] 


 ****     Capacitor MODEL PARAMETERS


******************************************************************************




               Cbreak          
           C    1            


**** 07/21/23 18:38:39 ******* PSpice 17.4.0 (Nov 2018) ******* ID# 0 ********

 ** Profile: "SCHEMATIC1-MC_WC_Exam"  [ D:\Ian_Jung\workplace\PSpice\Monte_Carlo-Worst_Case-PSpiceFiles\SCHEMATIC1\MC_WC_Exam.sim ] 


 ****     INITIAL TRANSIENT SOLUTION       TEMPERATURE =   27.000 DEG C

 ****     CURRENT STEP                     V_V1 =    9.5   

                      MONTE CARLO NOMINAL

******************************************************************************



 NODE   VOLTAGE     NODE   VOLTAGE     NODE   VOLTAGE     NODE   VOLTAGE


(   IN)    0.0000  (  OUT)     .1837  (N14530) 100.6E-09 (N14684)    6.3000     

(N14719)   10.0000 (X_U1.6)    1.5053 (X_U1.7)   -1.8466 (X_U1.8)   -1.8466     

(X_U1.9)    0.0000 (X_U1.10)    5.6602                   (X_U1.11)    9.9202    

(X_U1.12)   10.0000                   (X_U1.13)    5.6881                       

(X_U1.14)    5.6602                   (X_U1.53)    9.0000                       

(X_U1.54)    1.0000                   (X_U1.90)  -40.6060                       

(X_U1.91)   40.0000                   (X_U1.92)  -40.0000                       

(X_U1.99)    5.0000                   




    VOLTAGE SOURCE CURRENTS
    NAME         CURRENT

    V_V1         1.006E-11
    V_V2        -1.001E+00
    X_U1.vb      1.505E-05
    X_U1.vc      8.817E-12
    X_U1.ve     -4.061E-02
    X_U1.vlim   -4.061E-02
    X_U1.vlp    -8.061E-11
    X_U1.vln     1.190E-05

    TOTAL POWER DISSIPATION   1.00E+01  WATTS


**** 07/21/23 18:38:39 ******* PSpice 17.4.0 (Nov 2018) ******* ID# 0 ********

 ** Profile: "SCHEMATIC1-MC_WC_Exam"  [ D:\Ian_Jung\workplace\PSpice\Monte_Carlo-Worst_Case-PSpiceFiles\SCHEMATIC1\MC_WC_Exam.sim ] 


 ****     INITIAL TRANSIENT SOLUTION       TEMPERATURE =   27.000 DEG C

 ****     CURRENT STEP                     V_V1 =    9.5   

                      MONTE CARLO PASS 2

******************************************************************************



 NODE   VOLTAGE     NODE   VOLTAGE     NODE   VOLTAGE     NODE   VOLTAGE


(   IN)    0.0000  (  OUT)     .1837  (N14530) 101.8E-09 (N14684)    6.1094     

(N14719)   10.0000 (X_U1.6)    1.5038 (X_U1.7)   -1.8466 (X_U1.8)   -1.8466     

(X_U1.9)    0.0000 (X_U1.10)    5.4697                   (X_U1.11)    9.9202    

(X_U1.12)   10.0000                   (X_U1.13)    5.4976                       

(X_U1.14)    5.4697                   (X_U1.53)    9.0000                       

(X_U1.54)    1.0000                   (X_U1.90)  -40.6060                       

(X_U1.91)   40.0000                   (X_U1.92)  -40.0000                       

(X_U1.99)    5.0000                   




    VOLTAGE SOURCE CURRENTS
    NAME         CURRENT

    V_V1         1.006E-11
    V_V2        -1.061E+00
    X_U1.vb      1.504E-05
    X_U1.vc      8.817E-12
    X_U1.ve     -4.061E-02
    X_U1.vlim   -4.061E-02
    X_U1.vlp    -8.061E-11
    X_U1.vln     1.188E-05

    TOTAL POWER DISSIPATION   1.06E+01  WATTS


**** 07/21/23 18:38:39 ******* PSpice 17.4.0 (Nov 2018) ******* ID# 0 ********

 ** Profile: "SCHEMATIC1-MC_WC_Exam"  [ D:\Ian_Jung\workplace\PSpice\Monte_Carlo-Worst_Case-PSpiceFiles\SCHEMATIC1\MC_WC_Exam.sim ] 


 ****     INITIAL TRANSIENT SOLUTION       TEMPERATURE =   27.000 DEG C

 ****     CURRENT STEP                     V_V1 =    9.5   

                      MONTE CARLO PASS 3

******************************************************************************



 NODE   VOLTAGE     NODE   VOLTAGE     NODE   VOLTAGE     NODE   VOLTAGE


(   IN)    0.0000  (  OUT)     .1837  (N14530) 94.54E-09 (N14684)    6.0727     

(N14719)   10.0000 (X_U1.6)    1.5035 (X_U1.7)   -1.8466 (X_U1.8)   -1.8466     

(X_U1.9)    0.0000 (X_U1.10)    5.4329                   (X_U1.11)    9.9203    

(X_U1.12)   10.0000                   (X_U1.13)    5.4608                       

(X_U1.14)    5.4329                   (X_U1.53)    9.0000                       

(X_U1.54)    1.0000                   (X_U1.90)  -40.6060                       

(X_U1.91)   40.0000                   (X_U1.92)  -40.0000                       

(X_U1.99)    5.0000                   




    VOLTAGE SOURCE CURRENTS
    NAME         CURRENT

    V_V1         1.006E-11
    V_V2        -1.052E+00
    X_U1.vb      1.503E-05
    X_U1.vc      8.817E-12
    X_U1.ve     -4.061E-02
    X_U1.vlim   -4.061E-02
    X_U1.vlp    -8.061E-11
    X_U1.vln     1.188E-05

    TOTAL POWER DISSIPATION   1.06E+01  WATTS


**** 07/21/23 18:38:39 ******* PSpice 17.4.0 (Nov 2018) ******* ID# 0 ********

 ** Profile: "SCHEMATIC1-MC_WC_Exam"  [ D:\Ian_Jung\workplace\PSpice\Monte_Carlo-Worst_Case-PSpiceFiles\SCHEMATIC1\MC_WC_Exam.sim ] 


 ****     INITIAL TRANSIENT SOLUTION       TEMPERATURE =   27.000 DEG C

 ****     CURRENT STEP                     V_V1 =    9.5   

                      MONTE CARLO PASS 4

******************************************************************************



 NODE   VOLTAGE     NODE   VOLTAGE     NODE   VOLTAGE     NODE   VOLTAGE


(   IN)    0.0000  (  OUT)     .1837  (N14530) 101.9E-09 (N14684)    6.3421     

(N14719)   10.0000 (X_U1.6)    1.5057 (X_U1.7)   -1.8466 (X_U1.8)   -1.8466     

(X_U1.9)    0.0000 (X_U1.10)    5.7022                   (X_U1.11)    9.9201    

(X_U1.12)   10.0000                   (X_U1.13)    5.7302                       

(X_U1.14)    5.7022                   (X_U1.53)    9.0000                       

(X_U1.54)    1.0000                   (X_U1.90)  -40.6060                       

(X_U1.91)   40.0000                   (X_U1.92)  -40.0000                       

(X_U1.99)    5.0000                   




    VOLTAGE SOURCE CURRENTS
    NAME         CURRENT

    V_V1         1.006E-11
    V_V2        -1.038E+00
    X_U1.vb      1.506E-05
    X_U1.vc      8.817E-12
    X_U1.ve     -4.061E-02
    X_U1.vlim   -4.061E-02
    X_U1.vlp    -8.061E-11
    X_U1.vln     1.190E-05

    TOTAL POWER DISSIPATION   1.04E+01  WATTS


**** 07/21/23 18:38:39 ******* PSpice 17.4.0 (Nov 2018) ******* ID# 0 ********

 ** Profile: "SCHEMATIC1-MC_WC_Exam"  [ D:\Ian_Jung\workplace\PSpice\Monte_Carlo-Worst_Case-PSpiceFiles\SCHEMATIC1\MC_WC_Exam.sim ] 


 ****     INITIAL TRANSIENT SOLUTION       TEMPERATURE =   27.000 DEG C

 ****     CURRENT STEP                     V_V1 =    9.5   

                      MONTE CARLO PASS 5

******************************************************************************



 NODE   VOLTAGE     NODE   VOLTAGE     NODE   VOLTAGE     NODE   VOLTAGE


(   IN)    0.0000  (  OUT)     .1837  (N14530) 107.8E-09 (N14684)    6.1693     

(N14719)   10.0000 (X_U1.6)    1.5043 (X_U1.7)   -1.8466 (X_U1.8)   -1.8466     

(X_U1.9)    0.0000 (X_U1.10)    5.5295                   (X_U1.11)    9.9202    

(X_U1.12)   10.0000                   (X_U1.13)    5.5574                       

(X_U1.14)    5.5295                   (X_U1.53)    9.0000                       

(X_U1.54)    1.0000                   (X_U1.90)  -40.6060                       

(X_U1.91)   40.0000                   (X_U1.92)  -40.0000                       

(X_U1.99)    5.0000                   




    VOLTAGE SOURCE CURRENTS
    NAME         CURRENT

    V_V1         1.006E-11
    V_V2        -1.054E+00
    X_U1.vb      1.504E-05
    X_U1.vc      8.817E-12
    X_U1.ve     -4.061E-02
    X_U1.vlim   -4.061E-02
    X_U1.vlp    -8.061E-11
    X_U1.vln     1.189E-05

    TOTAL POWER DISSIPATION   1.06E+01  WATTS


**** 07/21/23 18:38:39 ******* PSpice 17.4.0 (Nov 2018) ******* ID# 0 ********

 ** Profile: "SCHEMATIC1-MC_WC_Exam"  [ D:\Ian_Jung\workplace\PSpice\Monte_Carlo-Worst_Case-PSpiceFiles\SCHEMATIC1\MC_WC_Exam.sim ] 


 ****     INITIAL TRANSIENT SOLUTION       TEMPERATURE =   27.000 DEG C

 ****     CURRENT STEP                     V_V1 =    9.5   

                      MONTE CARLO PASS 6

******************************************************************************



 NODE   VOLTAGE     NODE   VOLTAGE     NODE   VOLTAGE     NODE   VOLTAGE


(   IN)    0.0000  (  OUT)     .1837  (N14530) 92.03E-09 (N14684)    6.2150     

(N14719)   10.0000 (X_U1.6)    1.5046 (X_U1.7)   -1.8466 (X_U1.8)   -1.8466     

(X_U1.9)    0.0000 (X_U1.10)    5.5752                   (X_U1.11)    9.9202    

(X_U1.12)   10.0000                   (X_U1.13)    5.6032                       

(X_U1.14)    5.5752                   (X_U1.53)    9.0000                       

(X_U1.54)    1.0000                   (X_U1.90)  -40.6060                       

(X_U1.91)   40.0000                   (X_U1.92)  -40.0000                       

(X_U1.99)    5.0000                   




    VOLTAGE SOURCE CURRENTS
    NAME         CURRENT

    V_V1         1.006E-11
    V_V2        -9.992E-01
    X_U1.vb      1.505E-05
    X_U1.vc      8.817E-12
    X_U1.ve     -4.061E-02
    X_U1.vlim   -4.061E-02
    X_U1.vlp    -8.061E-11
    X_U1.vln     1.189E-05

    TOTAL POWER DISSIPATION   1.00E+01  WATTS


**** 07/21/23 18:38:39 ******* PSpice 17.4.0 (Nov 2018) ******* ID# 0 ********

 ** Profile: "SCHEMATIC1-MC_WC_Exam"  [ D:\Ian_Jung\workplace\PSpice\Monte_Carlo-Worst_Case-PSpiceFiles\SCHEMATIC1\MC_WC_Exam.sim ] 


 ****     INITIAL TRANSIENT SOLUTION       TEMPERATURE =   27.000 DEG C

 ****     CURRENT STEP                     V_V1 =    9.5   

                      MONTE CARLO PASS 7

******************************************************************************



 NODE   VOLTAGE     NODE   VOLTAGE     NODE   VOLTAGE     NODE   VOLTAGE


(   IN)    0.0000  (  OUT)     .1837  (N14530) 98.35E-09 (N14684)    5.9667     

(N14719)   10.0000 (X_U1.6)    1.5026 (X_U1.7)   -1.8466 (X_U1.8)   -1.8466     

(X_U1.9)    0.0000 (X_U1.10)    5.3269                   (X_U1.11)    9.9203    

(X_U1.12)   10.0000                   (X_U1.13)    5.3548                       

(X_U1.14)    5.3269                   (X_U1.53)    9.0000                       

(X_U1.54)    1.0000                   (X_U1.90)  -40.6060                       

(X_U1.91)   40.0000                   (X_U1.92)  -40.0000                       

(X_U1.99)    5.0000                   




    VOLTAGE SOURCE CURRENTS
    NAME         CURRENT

    V_V1         1.006E-11
    V_V2        -9.953E-01
    X_U1.vb      1.503E-05
    X_U1.vc      8.817E-12
    X_U1.ve     -4.061E-02
    X_U1.vlim   -4.061E-02
    X_U1.vlp    -8.061E-11
    X_U1.vln     1.187E-05

    TOTAL POWER DISSIPATION   9.99E+00  WATTS


**** 07/21/23 18:38:39 ******* PSpice 17.4.0 (Nov 2018) ******* ID# 0 ********

 ** Profile: "SCHEMATIC1-MC_WC_Exam"  [ D:\Ian_Jung\workplace\PSpice\Monte_Carlo-Worst_Case-PSpiceFiles\SCHEMATIC1\MC_WC_Exam.sim ] 


 ****     INITIAL TRANSIENT SOLUTION       TEMPERATURE =   27.000 DEG C

 ****     CURRENT STEP                     V_V1 =    9.5   

                      MONTE CARLO PASS 8

******************************************************************************



 NODE   VOLTAGE     NODE   VOLTAGE     NODE   VOLTAGE     NODE   VOLTAGE


(   IN)    0.0000  (  OUT)     .1837  (N14530) 93.42E-09 (N14684)    5.9244     

(N14719)   10.0000 (X_U1.6)    1.5023 (X_U1.7)   -1.8466 (X_U1.8)   -1.8466     

(X_U1.9)    0.0000 (X_U1.10)    5.2847                   (X_U1.11)    9.9203    

(X_U1.12)   10.0000                   (X_U1.13)    5.3125                       

(X_U1.14)    5.2847                   (X_U1.53)    9.0000                       

(X_U1.54)    1.0000                   (X_U1.90)  -40.6060                       

(X_U1.91)   40.0000                   (X_U1.92)  -40.0000                       

(X_U1.99)    5.0000                   




    VOLTAGE SOURCE CURRENTS
    NAME         CURRENT

    V_V1         1.006E-11
    V_V2        -1.028E+00
    X_U1.vb      1.502E-05
    X_U1.vc      8.817E-12
    X_U1.ve     -4.061E-02
    X_U1.vlim   -4.061E-02
    X_U1.vlp    -8.061E-11
    X_U1.vln     1.187E-05

    TOTAL POWER DISSIPATION   1.03E+01  WATTS


**** 07/21/23 18:38:39 ******* PSpice 17.4.0 (Nov 2018) ******* ID# 0 ********

 ** Profile: "SCHEMATIC1-MC_WC_Exam"  [ D:\Ian_Jung\workplace\PSpice\Monte_Carlo-Worst_Case-PSpiceFiles\SCHEMATIC1\MC_WC_Exam.sim ] 


 ****     INITIAL TRANSIENT SOLUTION       TEMPERATURE =   27.000 DEG C

 ****     CURRENT STEP                     V_V1 =    9.5   

                      MONTE CARLO PASS 9

******************************************************************************



 NODE   VOLTAGE     NODE   VOLTAGE     NODE   VOLTAGE     NODE   VOLTAGE


(   IN)    0.0000  (  OUT)     .1837  (N14530) 98.78E-09 (N14684)    6.0498     

(N14719)   10.0000 (X_U1.6)    1.5033 (X_U1.7)   -1.8466 (X_U1.8)   -1.8466     

(X_U1.9)    0.0000 (X_U1.10)    5.4100                   (X_U1.11)    9.9203    

(X_U1.12)   10.0000                   (X_U1.13)    5.4379                       

(X_U1.14)    5.4100                   (X_U1.53)    9.0000                       

(X_U1.54)    1.0000                   (X_U1.90)  -40.6060                       

(X_U1.91)   40.0000                   (X_U1.92)  -40.0000                       

(X_U1.99)    5.0000                   




    VOLTAGE SOURCE CURRENTS
    NAME         CURRENT

    V_V1         1.006E-11
    V_V2        -1.013E+00
    X_U1.vb      1.503E-05
    X_U1.vc      8.817E-12
    X_U1.ve     -4.061E-02
    X_U1.vlim   -4.061E-02
    X_U1.vlp    -8.061E-11
    X_U1.vln     1.188E-05

    TOTAL POWER DISSIPATION   1.02E+01  WATTS


**** 07/21/23 18:38:39 ******* PSpice 17.4.0 (Nov 2018) ******* ID# 0 ********

 ** Profile: "SCHEMATIC1-MC_WC_Exam"  [ D:\Ian_Jung\workplace\PSpice\Monte_Carlo-Worst_Case-PSpiceFiles\SCHEMATIC1\MC_WC_Exam.sim ] 


 ****     INITIAL TRANSIENT SOLUTION       TEMPERATURE =   27.000 DEG C

 ****     CURRENT STEP                     V_V1 =    9.5   

                      MONTE CARLO PASS 10

******************************************************************************



 NODE   VOLTAGE     NODE   VOLTAGE     NODE   VOLTAGE     NODE   VOLTAGE


(   IN)    0.0000  (  OUT)     .1837  (N14530) 95.88E-09 (N14684)    6.1712     

(N14719)   10.0000 (X_U1.6)    1.5043 (X_U1.7)   -1.8466 (X_U1.8)   -1.8466     

(X_U1.9)    0.0000 (X_U1.10)    5.5314                   (X_U1.11)    9.9202    

(X_U1.12)   10.0000                   (X_U1.13)    5.5593                       

(X_U1.14)    5.5314                   (X_U1.53)    9.0000                       

(X_U1.54)    1.0000                   (X_U1.90)  -40.6060                       

(X_U1.91)   40.0000                   (X_U1.92)  -40.0000                       

(X_U1.99)    5.0000                   




    VOLTAGE SOURCE CURRENTS
    NAME         CURRENT

    V_V1         1.006E-11
    V_V2        -9.575E-01
    X_U1.vb      1.504E-05
    X_U1.vc      8.817E-12
    X_U1.ve     -4.061E-02
    X_U1.vlim   -4.061E-02
    X_U1.vlp    -8.061E-11
    X_U1.vln     1.189E-05

    TOTAL POWER DISSIPATION   9.62E+00  WATTS


**** 07/21/23 18:38:39 ******* PSpice 17.4.0 (Nov 2018) ******* ID# 0 ********

 ** Profile: "SCHEMATIC1-MC_WC_Exam"  [ D:\Ian_Jung\workplace\PSpice\Monte_Carlo-Worst_Case-PSpiceFiles\SCHEMATIC1\MC_WC_Exam.sim ] 


 ****     SORTED DEVIATIONS OF V(OUT)      TEMPERATURE =   27.000 DEG C

 ****     CURRENT STEP                     V_V1 =    9.5   

                      MONTE CARLO SUMMARY

******************************************************************************





Mean Deviation =    7.4902
Sigma          =    6.0538

 RUN                    MAX DEVIATION FROM NOMINAL

Pass   10               9.6325  (1.59 sigma)  higher  at T =     .0419
                        (   5.3426E+03% of Nominal)

Pass    8               9.6325  (1.59 sigma)  higher  at T =     .042 
                        (   5.3426E+03% of Nominal)

Pass    3               9.6325  (1.59 sigma)  higher  at T =     .0419
                        (   5.3426E+03% of Nominal)

Pass    7               9.6325  (1.59 sigma)  higher  at T =     .0419
                        (   5.3426E+03% of Nominal)

Pass    6               9.6325  (1.59 sigma)  higher  at T =    1.9767E-03
                        (   5.3425E+03% of Nominal)

Pass    9               9.6325  (1.59 sigma)  higher  at T =     .022 
                        (   5.3425E+03% of Nominal)

Pass    4               9.6324  (1.59 sigma)  lower  at T =    2.1202E-03
                        (   1.8719% of Nominal)

Pass    2               9.6292  (1.59 sigma)  higher  at T =     .0115
                        (   5.3372E+03% of Nominal)

Pass    5               9.6202  (1.59 sigma)  higher  at T =     .0115
                        (   5.3323E+03% of Nominal)


**** 07/21/23 18:38:39 ******* PSpice 17.4.0 (Nov 2018) ******* ID# 0 ********

 ** Profile: "SCHEMATIC1-MC_WC_Exam"  [ D:\Ian_Jung\workplace\PSpice\Monte_Carlo-Worst_Case-PSpiceFiles\SCHEMATIC1\MC_WC_Exam.sim ] 


 ****     INITIAL TRANSIENT SOLUTION       TEMPERATURE =   27.000 DEG C

 ****     CURRENT STEP                     V_V1 =    9.6   

                      MONTE CARLO NOMINAL

******************************************************************************



 NODE   VOLTAGE     NODE   VOLTAGE     NODE   VOLTAGE     NODE   VOLTAGE


(   IN)    0.0000  (  OUT)     .1837  (N14530) 100.6E-09 (N14684)    6.3000     

(N14719)   10.0000 (X_U1.6)    1.5053 (X_U1.7)   -1.8466 (X_U1.8)   -1.8466     

(X_U1.9)    0.0000 (X_U1.10)    5.6602                   (X_U1.11)    9.9202    

(X_U1.12)   10.0000                   (X_U1.13)    5.6881                       

(X_U1.14)    5.6602                   (X_U1.53)    9.0000                       

(X_U1.54)    1.0000                   (X_U1.90)  -40.6060                       

(X_U1.91)   40.0000                   (X_U1.92)  -40.0000                       

(X_U1.99)    5.0000                   




    VOLTAGE SOURCE CURRENTS
    NAME         CURRENT

    V_V1         1.006E-11
    V_V2        -1.001E+00
    X_U1.vb      1.505E-05
    X_U1.vc      8.817E-12
    X_U1.ve     -4.061E-02
    X_U1.vlim   -4.061E-02
    X_U1.vlp    -8.061E-11
    X_U1.vln     1.190E-05

    TOTAL POWER DISSIPATION   1.00E+01  WATTS


**** 07/21/23 18:38:39 ******* PSpice 17.4.0 (Nov 2018) ******* ID# 0 ********

 ** Profile: "SCHEMATIC1-MC_WC_Exam"  [ D:\Ian_Jung\workplace\PSpice\Monte_Carlo-Worst_Case-PSpiceFiles\SCHEMATIC1\MC_WC_Exam.sim ] 


 ****     INITIAL TRANSIENT SOLUTION       TEMPERATURE =   27.000 DEG C

 ****     CURRENT STEP                     V_V1 =    9.6   

                      MONTE CARLO PASS 2

******************************************************************************



 NODE   VOLTAGE     NODE   VOLTAGE     NODE   VOLTAGE     NODE   VOLTAGE


(   IN)    0.0000  (  OUT)     .1837  (N14530) 101.8E-09 (N14684)    6.1094     

(N14719)   10.0000 (X_U1.6)    1.5038 (X_U1.7)   -1.8466 (X_U1.8)   -1.8466     

(X_U1.9)    0.0000 (X_U1.10)    5.4697                   (X_U1.11)    9.9202    

(X_U1.12)   10.0000                   (X_U1.13)    5.4976                       

(X_U1.14)    5.4697                   (X_U1.53)    9.0000                       

(X_U1.54)    1.0000                   (X_U1.90)  -40.6060                       

(X_U1.91)   40.0000                   (X_U1.92)  -40.0000                       

(X_U1.99)    5.0000                   




    VOLTAGE SOURCE CURRENTS
    NAME         CURRENT

    V_V1         1.006E-11
    V_V2        -1.061E+00
    X_U1.vb      1.504E-05
    X_U1.vc      8.817E-12
    X_U1.ve     -4.061E-02
    X_U1.vlim   -4.061E-02
    X_U1.vlp    -8.061E-11
    X_U1.vln     1.188E-05

    TOTAL POWER DISSIPATION   1.06E+01  WATTS


**** 07/21/23 18:38:39 ******* PSpice 17.4.0 (Nov 2018) ******* ID# 0 ********

 ** Profile: "SCHEMATIC1-MC_WC_Exam"  [ D:\Ian_Jung\workplace\PSpice\Monte_Carlo-Worst_Case-PSpiceFiles\SCHEMATIC1\MC_WC_Exam.sim ] 


 ****     INITIAL TRANSIENT SOLUTION       TEMPERATURE =   27.000 DEG C

 ****     CURRENT STEP                     V_V1 =    9.6   

                      MONTE CARLO PASS 3

******************************************************************************



 NODE   VOLTAGE     NODE   VOLTAGE     NODE   VOLTAGE     NODE   VOLTAGE


(   IN)    0.0000  (  OUT)     .1837  (N14530) 94.54E-09 (N14684)    6.0727     

(N14719)   10.0000 (X_U1.6)    1.5035 (X_U1.7)   -1.8466 (X_U1.8)   -1.8466     

(X_U1.9)    0.0000 (X_U1.10)    5.4329                   (X_U1.11)    9.9203    

(X_U1.12)   10.0000                   (X_U1.13)    5.4608                       

(X_U1.14)    5.4329                   (X_U1.53)    9.0000                       

(X_U1.54)    1.0000                   (X_U1.90)  -40.6060                       

(X_U1.91)   40.0000                   (X_U1.92)  -40.0000                       

(X_U1.99)    5.0000                   




    VOLTAGE SOURCE CURRENTS
    NAME         CURRENT

    V_V1         1.006E-11
    V_V2        -1.052E+00
    X_U1.vb      1.503E-05
    X_U1.vc      8.817E-12
    X_U1.ve     -4.061E-02
    X_U1.vlim   -4.061E-02
    X_U1.vlp    -8.061E-11
    X_U1.vln     1.188E-05

    TOTAL POWER DISSIPATION   1.06E+01  WATTS


**** 07/21/23 18:38:39 ******* PSpice 17.4.0 (Nov 2018) ******* ID# 0 ********

 ** Profile: "SCHEMATIC1-MC_WC_Exam"  [ D:\Ian_Jung\workplace\PSpice\Monte_Carlo-Worst_Case-PSpiceFiles\SCHEMATIC1\MC_WC_Exam.sim ] 


 ****     INITIAL TRANSIENT SOLUTION       TEMPERATURE =   27.000 DEG C

 ****     CURRENT STEP                     V_V1 =    9.6   

                      MONTE CARLO PASS 4

******************************************************************************



 NODE   VOLTAGE     NODE   VOLTAGE     NODE   VOLTAGE     NODE   VOLTAGE


(   IN)    0.0000  (  OUT)     .1837  (N14530) 101.9E-09 (N14684)    6.3421     

(N14719)   10.0000 (X_U1.6)    1.5057 (X_U1.7)   -1.8466 (X_U1.8)   -1.8466     

(X_U1.9)    0.0000 (X_U1.10)    5.7022                   (X_U1.11)    9.9201    

(X_U1.12)   10.0000                   (X_U1.13)    5.7302                       

(X_U1.14)    5.7022                   (X_U1.53)    9.0000                       

(X_U1.54)    1.0000                   (X_U1.90)  -40.6060                       

(X_U1.91)   40.0000                   (X_U1.92)  -40.0000                       

(X_U1.99)    5.0000                   




    VOLTAGE SOURCE CURRENTS
    NAME         CURRENT

    V_V1         1.006E-11
    V_V2        -1.038E+00
    X_U1.vb      1.506E-05
    X_U1.vc      8.817E-12
    X_U1.ve     -4.061E-02
    X_U1.vlim   -4.061E-02
    X_U1.vlp    -8.061E-11
    X_U1.vln     1.190E-05

    TOTAL POWER DISSIPATION   1.04E+01  WATTS


**** 07/21/23 18:38:39 ******* PSpice 17.4.0 (Nov 2018) ******* ID# 0 ********

 ** Profile: "SCHEMATIC1-MC_WC_Exam"  [ D:\Ian_Jung\workplace\PSpice\Monte_Carlo-Worst_Case-PSpiceFiles\SCHEMATIC1\MC_WC_Exam.sim ] 


 ****     INITIAL TRANSIENT SOLUTION       TEMPERATURE =   27.000 DEG C

 ****     CURRENT STEP                     V_V1 =    9.6   

                      MONTE CARLO PASS 5

******************************************************************************



 NODE   VOLTAGE     NODE   VOLTAGE     NODE   VOLTAGE     NODE   VOLTAGE


(   IN)    0.0000  (  OUT)     .1837  (N14530) 107.8E-09 (N14684)    6.1693     

(N14719)   10.0000 (X_U1.6)    1.5043 (X_U1.7)   -1.8466 (X_U1.8)   -1.8466     

(X_U1.9)    0.0000 (X_U1.10)    5.5295                   (X_U1.11)    9.9202    

(X_U1.12)   10.0000                   (X_U1.13)    5.5574                       

(X_U1.14)    5.5295                   (X_U1.53)    9.0000                       

(X_U1.54)    1.0000                   (X_U1.90)  -40.6060                       

(X_U1.91)   40.0000                   (X_U1.92)  -40.0000                       

(X_U1.99)    5.0000                   




    VOLTAGE SOURCE CURRENTS
    NAME         CURRENT

    V_V1         1.006E-11
    V_V2        -1.054E+00
    X_U1.vb      1.504E-05
    X_U1.vc      8.817E-12
    X_U1.ve     -4.061E-02
    X_U1.vlim   -4.061E-02
    X_U1.vlp    -8.061E-11
    X_U1.vln     1.189E-05

    TOTAL POWER DISSIPATION   1.06E+01  WATTS


**** 07/21/23 18:38:39 ******* PSpice 17.4.0 (Nov 2018) ******* ID# 0 ********

 ** Profile: "SCHEMATIC1-MC_WC_Exam"  [ D:\Ian_Jung\workplace\PSpice\Monte_Carlo-Worst_Case-PSpiceFiles\SCHEMATIC1\MC_WC_Exam.sim ] 


 ****     INITIAL TRANSIENT SOLUTION       TEMPERATURE =   27.000 DEG C

 ****     CURRENT STEP                     V_V1 =    9.6   

                      MONTE CARLO PASS 6

******************************************************************************



 NODE   VOLTAGE     NODE   VOLTAGE     NODE   VOLTAGE     NODE   VOLTAGE


(   IN)    0.0000  (  OUT)     .1837  (N14530) 92.03E-09 (N14684)    6.2150     

(N14719)   10.0000 (X_U1.6)    1.5046 (X_U1.7)   -1.8466 (X_U1.8)   -1.8466     

(X_U1.9)    0.0000 (X_U1.10)    5.5752                   (X_U1.11)    9.9202    

(X_U1.12)   10.0000                   (X_U1.13)    5.6032                       

(X_U1.14)    5.5752                   (X_U1.53)    9.0000                       

(X_U1.54)    1.0000                   (X_U1.90)  -40.6060                       

(X_U1.91)   40.0000                   (X_U1.92)  -40.0000                       

(X_U1.99)    5.0000                   




    VOLTAGE SOURCE CURRENTS
    NAME         CURRENT

    V_V1         1.006E-11
    V_V2        -9.992E-01
    X_U1.vb      1.505E-05
    X_U1.vc      8.817E-12
    X_U1.ve     -4.061E-02
    X_U1.vlim   -4.061E-02
    X_U1.vlp    -8.061E-11
    X_U1.vln     1.189E-05

    TOTAL POWER DISSIPATION   1.00E+01  WATTS


**** 07/21/23 18:38:39 ******* PSpice 17.4.0 (Nov 2018) ******* ID# 0 ********

 ** Profile: "SCHEMATIC1-MC_WC_Exam"  [ D:\Ian_Jung\workplace\PSpice\Monte_Carlo-Worst_Case-PSpiceFiles\SCHEMATIC1\MC_WC_Exam.sim ] 


 ****     INITIAL TRANSIENT SOLUTION       TEMPERATURE =   27.000 DEG C

 ****     CURRENT STEP                     V_V1 =    9.6   

                      MONTE CARLO PASS 7

******************************************************************************



 NODE   VOLTAGE     NODE   VOLTAGE     NODE   VOLTAGE     NODE   VOLTAGE


(   IN)    0.0000  (  OUT)     .1837  (N14530) 98.35E-09 (N14684)    5.9667     

(N14719)   10.0000 (X_U1.6)    1.5026 (X_U1.7)   -1.8466 (X_U1.8)   -1.8466     

(X_U1.9)    0.0000 (X_U1.10)    5.3269                   (X_U1.11)    9.9203    

(X_U1.12)   10.0000                   (X_U1.13)    5.3548                       

(X_U1.14)    5.3269                   (X_U1.53)    9.0000                       

(X_U1.54)    1.0000                   (X_U1.90)  -40.6060                       

(X_U1.91)   40.0000                   (X_U1.92)  -40.0000                       

(X_U1.99)    5.0000                   




    VOLTAGE SOURCE CURRENTS
    NAME         CURRENT

    V_V1         1.006E-11
    V_V2        -9.953E-01
    X_U1.vb      1.503E-05
    X_U1.vc      8.817E-12
    X_U1.ve     -4.061E-02
    X_U1.vlim   -4.061E-02
    X_U1.vlp    -8.061E-11
    X_U1.vln     1.187E-05

    TOTAL POWER DISSIPATION   9.99E+00  WATTS


**** 07/21/23 18:38:39 ******* PSpice 17.4.0 (Nov 2018) ******* ID# 0 ********

 ** Profile: "SCHEMATIC1-MC_WC_Exam"  [ D:\Ian_Jung\workplace\PSpice\Monte_Carlo-Worst_Case-PSpiceFiles\SCHEMATIC1\MC_WC_Exam.sim ] 


 ****     INITIAL TRANSIENT SOLUTION       TEMPERATURE =   27.000 DEG C

 ****     CURRENT STEP                     V_V1 =    9.6   

                      MONTE CARLO PASS 8

******************************************************************************



 NODE   VOLTAGE     NODE   VOLTAGE     NODE   VOLTAGE     NODE   VOLTAGE


(   IN)    0.0000  (  OUT)     .1837  (N14530) 93.42E-09 (N14684)    5.9244     

(N14719)   10.0000 (X_U1.6)    1.5023 (X_U1.7)   -1.8466 (X_U1.8)   -1.8466     

(X_U1.9)    0.0000 (X_U1.10)    5.2847                   (X_U1.11)    9.9203    

(X_U1.12)   10.0000                   (X_U1.13)    5.3125                       

(X_U1.14)    5.2847                   (X_U1.53)    9.0000                       

(X_U1.54)    1.0000                   (X_U1.90)  -40.6060                       

(X_U1.91)   40.0000                   (X_U1.92)  -40.0000                       

(X_U1.99)    5.0000                   




    VOLTAGE SOURCE CURRENTS
    NAME         CURRENT

    V_V1         1.006E-11
    V_V2        -1.028E+00
    X_U1.vb      1.502E-05
    X_U1.vc      8.817E-12
    X_U1.ve     -4.061E-02
    X_U1.vlim   -4.061E-02
    X_U1.vlp    -8.061E-11
    X_U1.vln     1.187E-05

    TOTAL POWER DISSIPATION   1.03E+01  WATTS


**** 07/21/23 18:38:39 ******* PSpice 17.4.0 (Nov 2018) ******* ID# 0 ********

 ** Profile: "SCHEMATIC1-MC_WC_Exam"  [ D:\Ian_Jung\workplace\PSpice\Monte_Carlo-Worst_Case-PSpiceFiles\SCHEMATIC1\MC_WC_Exam.sim ] 


 ****     INITIAL TRANSIENT SOLUTION       TEMPERATURE =   27.000 DEG C

 ****     CURRENT STEP                     V_V1 =    9.6   

                      MONTE CARLO PASS 9

******************************************************************************



 NODE   VOLTAGE     NODE   VOLTAGE     NODE   VOLTAGE     NODE   VOLTAGE


(   IN)    0.0000  (  OUT)     .1837  (N14530) 98.78E-09 (N14684)    6.0498     

(N14719)   10.0000 (X_U1.6)    1.5033 (X_U1.7)   -1.8466 (X_U1.8)   -1.8466     

(X_U1.9)    0.0000 (X_U1.10)    5.4100                   (X_U1.11)    9.9203    

(X_U1.12)   10.0000                   (X_U1.13)    5.4379                       

(X_U1.14)    5.4100                   (X_U1.53)    9.0000                       

(X_U1.54)    1.0000                   (X_U1.90)  -40.6060                       

(X_U1.91)   40.0000                   (X_U1.92)  -40.0000                       

(X_U1.99)    5.0000                   




    VOLTAGE SOURCE CURRENTS
    NAME         CURRENT

    V_V1         1.006E-11
    V_V2        -1.013E+00
    X_U1.vb      1.503E-05
    X_U1.vc      8.817E-12
    X_U1.ve     -4.061E-02
    X_U1.vlim   -4.061E-02
    X_U1.vlp    -8.061E-11
    X_U1.vln     1.188E-05

    TOTAL POWER DISSIPATION   1.02E+01  WATTS


**** 07/21/23 18:38:39 ******* PSpice 17.4.0 (Nov 2018) ******* ID# 0 ********

 ** Profile: "SCHEMATIC1-MC_WC_Exam"  [ D:\Ian_Jung\workplace\PSpice\Monte_Carlo-Worst_Case-PSpiceFiles\SCHEMATIC1\MC_WC_Exam.sim ] 


 ****     INITIAL TRANSIENT SOLUTION       TEMPERATURE =   27.000 DEG C

 ****     CURRENT STEP                     V_V1 =    9.6   

                      MONTE CARLO PASS 10

******************************************************************************



 NODE   VOLTAGE     NODE   VOLTAGE     NODE   VOLTAGE     NODE   VOLTAGE


(   IN)    0.0000  (  OUT)     .1837  (N14530) 95.88E-09 (N14684)    6.1712     

(N14719)   10.0000 (X_U1.6)    1.5043 (X_U1.7)   -1.8466 (X_U1.8)   -1.8466     

(X_U1.9)    0.0000 (X_U1.10)    5.5314                   (X_U1.11)    9.9202    

(X_U1.12)   10.0000                   (X_U1.13)    5.5593                       

(X_U1.14)    5.5314                   (X_U1.53)    9.0000                       

(X_U1.54)    1.0000                   (X_U1.90)  -40.6060                       

(X_U1.91)   40.0000                   (X_U1.92)  -40.0000                       

(X_U1.99)    5.0000                   




    VOLTAGE SOURCE CURRENTS
    NAME         CURRENT

    V_V1         1.006E-11
    V_V2        -9.575E-01
    X_U1.vb      1.504E-05
    X_U1.vc      8.817E-12
    X_U1.ve     -4.061E-02
    X_U1.vlim   -4.061E-02
    X_U1.vlp    -8.061E-11
    X_U1.vln     1.189E-05

    TOTAL POWER DISSIPATION   9.62E+00  WATTS


**** 07/21/23 18:38:39 ******* PSpice 17.4.0 (Nov 2018) ******* ID# 0 ********

 ** Profile: "SCHEMATIC1-MC_WC_Exam"  [ D:\Ian_Jung\workplace\PSpice\Monte_Carlo-Worst_Case-PSpiceFiles\SCHEMATIC1\MC_WC_Exam.sim ] 


 ****     SORTED DEVIATIONS OF V(OUT)      TEMPERATURE =   27.000 DEG C

 ****     CURRENT STEP                     V_V1 =    9.6   

                      MONTE CARLO SUMMARY

******************************************************************************





Mean Deviation =    7.4902
Sigma          =    6.0538

 RUN                    MAX DEVIATION FROM NOMINAL

Pass   10               9.6325  (1.59 sigma)  higher  at T =     .0419
                        (   5.3426E+03% of Nominal)

Pass    8               9.6325  (1.59 sigma)  higher  at T =     .042 
                        (   5.3426E+03% of Nominal)

Pass    3               9.6325  (1.59 sigma)  higher  at T =     .0419
                        (   5.3426E+03% of Nominal)

Pass    7               9.6325  (1.59 sigma)  higher  at T =     .0419
                        (   5.3426E+03% of Nominal)

Pass    6               9.6325  (1.59 sigma)  higher  at T =    1.9767E-03
                        (   5.3425E+03% of Nominal)

Pass    9               9.6325  (1.59 sigma)  higher  at T =     .022 
                        (   5.3425E+03% of Nominal)

Pass    4               9.6324  (1.59 sigma)  lower  at T =    2.1202E-03
                        (   1.8719% of Nominal)

Pass    2               9.6292  (1.59 sigma)  higher  at T =     .0115
                        (   5.3372E+03% of Nominal)

Pass    5               9.6202  (1.59 sigma)  higher  at T =     .0115
                        (   5.3323E+03% of Nominal)


**** 07/21/23 18:38:39 ******* PSpice 17.4.0 (Nov 2018) ******* ID# 0 ********

 ** Profile: "SCHEMATIC1-MC_WC_Exam"  [ D:\Ian_Jung\workplace\PSpice\Monte_Carlo-Worst_Case-PSpiceFiles\SCHEMATIC1\MC_WC_Exam.sim ] 


 ****     INITIAL TRANSIENT SOLUTION       TEMPERATURE =   27.000 DEG C

 ****     CURRENT STEP                     V_V1 =    9.7   

                      MONTE CARLO NOMINAL

******************************************************************************



 NODE   VOLTAGE     NODE   VOLTAGE     NODE   VOLTAGE     NODE   VOLTAGE


(   IN)    0.0000  (  OUT)     .1837  (N14530) 100.6E-09 (N14684)    6.3000     

(N14719)   10.0000 (X_U1.6)    1.5053 (X_U1.7)   -1.8466 (X_U1.8)   -1.8466     

(X_U1.9)    0.0000 (X_U1.10)    5.6602                   (X_U1.11)    9.9202    

(X_U1.12)   10.0000                   (X_U1.13)    5.6881                       

(X_U1.14)    5.6602                   (X_U1.53)    9.0000                       

(X_U1.54)    1.0000                   (X_U1.90)  -40.6060                       

(X_U1.91)   40.0000                   (X_U1.92)  -40.0000                       

(X_U1.99)    5.0000                   




    VOLTAGE SOURCE CURRENTS
    NAME         CURRENT

    V_V1         1.006E-11
    V_V2        -1.001E+00
    X_U1.vb      1.505E-05
    X_U1.vc      8.817E-12
    X_U1.ve     -4.061E-02
    X_U1.vlim   -4.061E-02
    X_U1.vlp    -8.061E-11
    X_U1.vln     1.190E-05

    TOTAL POWER DISSIPATION   1.00E+01  WATTS


**** 07/21/23 18:38:39 ******* PSpice 17.4.0 (Nov 2018) ******* ID# 0 ********

 ** Profile: "SCHEMATIC1-MC_WC_Exam"  [ D:\Ian_Jung\workplace\PSpice\Monte_Carlo-Worst_Case-PSpiceFiles\SCHEMATIC1\MC_WC_Exam.sim ] 


 ****     INITIAL TRANSIENT SOLUTION       TEMPERATURE =   27.000 DEG C

 ****     CURRENT STEP                     V_V1 =    9.7   

                      MONTE CARLO PASS 2

******************************************************************************



 NODE   VOLTAGE     NODE   VOLTAGE     NODE   VOLTAGE     NODE   VOLTAGE


(   IN)    0.0000  (  OUT)     .1837  (N14530) 101.8E-09 (N14684)    6.1094     

(N14719)   10.0000 (X_U1.6)    1.5038 (X_U1.7)   -1.8466 (X_U1.8)   -1.8466     

(X_U1.9)    0.0000 (X_U1.10)    5.4697                   (X_U1.11)    9.9202    

(X_U1.12)   10.0000                   (X_U1.13)    5.4976                       

(X_U1.14)    5.4697                   (X_U1.53)    9.0000                       

(X_U1.54)    1.0000                   (X_U1.90)  -40.6060                       

(X_U1.91)   40.0000                   (X_U1.92)  -40.0000                       

(X_U1.99)    5.0000                   




    VOLTAGE SOURCE CURRENTS
    NAME         CURRENT

    V_V1         1.006E-11
    V_V2        -1.061E+00
    X_U1.vb      1.504E-05
    X_U1.vc      8.817E-12
    X_U1.ve     -4.061E-02
    X_U1.vlim   -4.061E-02
    X_U1.vlp    -8.061E-11
    X_U1.vln     1.188E-05

    TOTAL POWER DISSIPATION   1.06E+01  WATTS


**** 07/21/23 18:38:39 ******* PSpice 17.4.0 (Nov 2018) ******* ID# 0 ********

 ** Profile: "SCHEMATIC1-MC_WC_Exam"  [ D:\Ian_Jung\workplace\PSpice\Monte_Carlo-Worst_Case-PSpiceFiles\SCHEMATIC1\MC_WC_Exam.sim ] 


 ****     INITIAL TRANSIENT SOLUTION       TEMPERATURE =   27.000 DEG C

 ****     CURRENT STEP                     V_V1 =    9.7   

                      MONTE CARLO PASS 3

******************************************************************************



 NODE   VOLTAGE     NODE   VOLTAGE     NODE   VOLTAGE     NODE   VOLTAGE


(   IN)    0.0000  (  OUT)     .1837  (N14530) 94.54E-09 (N14684)    6.0727     

(N14719)   10.0000 (X_U1.6)    1.5035 (X_U1.7)   -1.8466 (X_U1.8)   -1.8466     

(X_U1.9)    0.0000 (X_U1.10)    5.4329                   (X_U1.11)    9.9203    

(X_U1.12)   10.0000                   (X_U1.13)    5.4608                       

(X_U1.14)    5.4329                   (X_U1.53)    9.0000                       

(X_U1.54)    1.0000                   (X_U1.90)  -40.6060                       

(X_U1.91)   40.0000                   (X_U1.92)  -40.0000                       

(X_U1.99)    5.0000                   




    VOLTAGE SOURCE CURRENTS
    NAME         CURRENT

    V_V1         1.006E-11
    V_V2        -1.052E+00
    X_U1.vb      1.503E-05
    X_U1.vc      8.817E-12
    X_U1.ve     -4.061E-02
    X_U1.vlim   -4.061E-02
    X_U1.vlp    -8.061E-11
    X_U1.vln     1.188E-05

    TOTAL POWER DISSIPATION   1.06E+01  WATTS


**** 07/21/23 18:38:39 ******* PSpice 17.4.0 (Nov 2018) ******* ID# 0 ********

 ** Profile: "SCHEMATIC1-MC_WC_Exam"  [ D:\Ian_Jung\workplace\PSpice\Monte_Carlo-Worst_Case-PSpiceFiles\SCHEMATIC1\MC_WC_Exam.sim ] 


 ****     INITIAL TRANSIENT SOLUTION       TEMPERATURE =   27.000 DEG C

 ****     CURRENT STEP                     V_V1 =    9.7   

                      MONTE CARLO PASS 4

******************************************************************************



 NODE   VOLTAGE     NODE   VOLTAGE     NODE   VOLTAGE     NODE   VOLTAGE


(   IN)    0.0000  (  OUT)     .1837  (N14530) 101.9E-09 (N14684)    6.3421     

(N14719)   10.0000 (X_U1.6)    1.5057 (X_U1.7)   -1.8466 (X_U1.8)   -1.8466     

(X_U1.9)    0.0000 (X_U1.10)    5.7022                   (X_U1.11)    9.9201    

(X_U1.12)   10.0000                   (X_U1.13)    5.7302                       

(X_U1.14)    5.7022                   (X_U1.53)    9.0000                       

(X_U1.54)    1.0000                   (X_U1.90)  -40.6060                       

(X_U1.91)   40.0000                   (X_U1.92)  -40.0000                       

(X_U1.99)    5.0000                   




    VOLTAGE SOURCE CURRENTS
    NAME         CURRENT

    V_V1         1.006E-11
    V_V2        -1.038E+00
    X_U1.vb      1.506E-05
    X_U1.vc      8.817E-12
    X_U1.ve     -4.061E-02
    X_U1.vlim   -4.061E-02
    X_U1.vlp    -8.061E-11
    X_U1.vln     1.190E-05

    TOTAL POWER DISSIPATION   1.04E+01  WATTS


**** 07/21/23 18:38:39 ******* PSpice 17.4.0 (Nov 2018) ******* ID# 0 ********

 ** Profile: "SCHEMATIC1-MC_WC_Exam"  [ D:\Ian_Jung\workplace\PSpice\Monte_Carlo-Worst_Case-PSpiceFiles\SCHEMATIC1\MC_WC_Exam.sim ] 


 ****     INITIAL TRANSIENT SOLUTION       TEMPERATURE =   27.000 DEG C

 ****     CURRENT STEP                     V_V1 =    9.7   

                      MONTE CARLO PASS 5

******************************************************************************



 NODE   VOLTAGE     NODE   VOLTAGE     NODE   VOLTAGE     NODE   VOLTAGE


(   IN)    0.0000  (  OUT)     .1837  (N14530) 107.8E-09 (N14684)    6.1693     

(N14719)   10.0000 (X_U1.6)    1.5043 (X_U1.7)   -1.8466 (X_U1.8)   -1.8466     

(X_U1.9)    0.0000 (X_U1.10)    5.5295                   (X_U1.11)    9.9202    

(X_U1.12)   10.0000                   (X_U1.13)    5.5574                       

(X_U1.14)    5.5295                   (X_U1.53)    9.0000                       

(X_U1.54)    1.0000                   (X_U1.90)  -40.6060                       

(X_U1.91)   40.0000                   (X_U1.92)  -40.0000                       

(X_U1.99)    5.0000                   




    VOLTAGE SOURCE CURRENTS
    NAME         CURRENT

    V_V1         1.006E-11
    V_V2        -1.054E+00
    X_U1.vb      1.504E-05
    X_U1.vc      8.817E-12
    X_U1.ve     -4.061E-02
    X_U1.vlim   -4.061E-02
    X_U1.vlp    -8.061E-11
    X_U1.vln     1.189E-05

    TOTAL POWER DISSIPATION   1.06E+01  WATTS


**** 07/21/23 18:38:39 ******* PSpice 17.4.0 (Nov 2018) ******* ID# 0 ********

 ** Profile: "SCHEMATIC1-MC_WC_Exam"  [ D:\Ian_Jung\workplace\PSpice\Monte_Carlo-Worst_Case-PSpiceFiles\SCHEMATIC1\MC_WC_Exam.sim ] 


 ****     INITIAL TRANSIENT SOLUTION       TEMPERATURE =   27.000 DEG C

 ****     CURRENT STEP                     V_V1 =    9.7   

                      MONTE CARLO PASS 6

******************************************************************************



 NODE   VOLTAGE     NODE   VOLTAGE     NODE   VOLTAGE     NODE   VOLTAGE


(   IN)    0.0000  (  OUT)     .1837  (N14530) 92.03E-09 (N14684)    6.2150     

(N14719)   10.0000 (X_U1.6)    1.5046 (X_U1.7)   -1.8466 (X_U1.8)   -1.8466     

(X_U1.9)    0.0000 (X_U1.10)    5.5752                   (X_U1.11)    9.9202    

(X_U1.12)   10.0000                   (X_U1.13)    5.6032                       

(X_U1.14)    5.5752                   (X_U1.53)    9.0000                       

(X_U1.54)    1.0000                   (X_U1.90)  -40.6060                       

(X_U1.91)   40.0000                   (X_U1.92)  -40.0000                       

(X_U1.99)    5.0000                   




    VOLTAGE SOURCE CURRENTS
    NAME         CURRENT

    V_V1         1.006E-11
    V_V2        -9.992E-01
    X_U1.vb      1.505E-05
    X_U1.vc      8.817E-12
    X_U1.ve     -4.061E-02
    X_U1.vlim   -4.061E-02
    X_U1.vlp    -8.061E-11
    X_U1.vln     1.189E-05

    TOTAL POWER DISSIPATION   1.00E+01  WATTS


**** 07/21/23 18:38:39 ******* PSpice 17.4.0 (Nov 2018) ******* ID# 0 ********

 ** Profile: "SCHEMATIC1-MC_WC_Exam"  [ D:\Ian_Jung\workplace\PSpice\Monte_Carlo-Worst_Case-PSpiceFiles\SCHEMATIC1\MC_WC_Exam.sim ] 


 ****     INITIAL TRANSIENT SOLUTION       TEMPERATURE =   27.000 DEG C

 ****     CURRENT STEP                     V_V1 =    9.7   

                      MONTE CARLO PASS 7

******************************************************************************



 NODE   VOLTAGE     NODE   VOLTAGE     NODE   VOLTAGE     NODE   VOLTAGE


(   IN)    0.0000  (  OUT)     .1837  (N14530) 98.35E-09 (N14684)    5.9667     

(N14719)   10.0000 (X_U1.6)    1.5026 (X_U1.7)   -1.8466 (X_U1.8)   -1.8466     

(X_U1.9)    0.0000 (X_U1.10)    5.3269                   (X_U1.11)    9.9203    

(X_U1.12)   10.0000                   (X_U1.13)    5.3548                       

(X_U1.14)    5.3269                   (X_U1.53)    9.0000                       

(X_U1.54)    1.0000                   (X_U1.90)  -40.6060                       

(X_U1.91)   40.0000                   (X_U1.92)  -40.0000                       

(X_U1.99)    5.0000                   




    VOLTAGE SOURCE CURRENTS
    NAME         CURRENT

    V_V1         1.006E-11
    V_V2        -9.953E-01
    X_U1.vb      1.503E-05
    X_U1.vc      8.817E-12
    X_U1.ve     -4.061E-02
    X_U1.vlim   -4.061E-02
    X_U1.vlp    -8.061E-11
    X_U1.vln     1.187E-05

    TOTAL POWER DISSIPATION   9.99E+00  WATTS


**** 07/21/23 18:38:39 ******* PSpice 17.4.0 (Nov 2018) ******* ID# 0 ********

 ** Profile: "SCHEMATIC1-MC_WC_Exam"  [ D:\Ian_Jung\workplace\PSpice\Monte_Carlo-Worst_Case-PSpiceFiles\SCHEMATIC1\MC_WC_Exam.sim ] 


 ****     INITIAL TRANSIENT SOLUTION       TEMPERATURE =   27.000 DEG C

 ****     CURRENT STEP                     V_V1 =    9.7   

                      MONTE CARLO PASS 8

******************************************************************************



 NODE   VOLTAGE     NODE   VOLTAGE     NODE   VOLTAGE     NODE   VOLTAGE


(   IN)    0.0000  (  OUT)     .1837  (N14530) 93.42E-09 (N14684)    5.9244     

(N14719)   10.0000 (X_U1.6)    1.5023 (X_U1.7)   -1.8466 (X_U1.8)   -1.8466     

(X_U1.9)    0.0000 (X_U1.10)    5.2847                   (X_U1.11)    9.9203    

(X_U1.12)   10.0000                   (X_U1.13)    5.3125                       

(X_U1.14)    5.2847                   (X_U1.53)    9.0000                       

(X_U1.54)    1.0000                   (X_U1.90)  -40.6060                       

(X_U1.91)   40.0000                   (X_U1.92)  -40.0000                       

(X_U1.99)    5.0000                   




    VOLTAGE SOURCE CURRENTS
    NAME         CURRENT

    V_V1         1.006E-11
    V_V2        -1.028E+00
    X_U1.vb      1.502E-05
    X_U1.vc      8.817E-12
    X_U1.ve     -4.061E-02
    X_U1.vlim   -4.061E-02
    X_U1.vlp    -8.061E-11
    X_U1.vln     1.187E-05

    TOTAL POWER DISSIPATION   1.03E+01  WATTS


**** 07/21/23 18:38:39 ******* PSpice 17.4.0 (Nov 2018) ******* ID# 0 ********

 ** Profile: "SCHEMATIC1-MC_WC_Exam"  [ D:\Ian_Jung\workplace\PSpice\Monte_Carlo-Worst_Case-PSpiceFiles\SCHEMATIC1\MC_WC_Exam.sim ] 


 ****     INITIAL TRANSIENT SOLUTION       TEMPERATURE =   27.000 DEG C

 ****     CURRENT STEP                     V_V1 =    9.7   

                      MONTE CARLO PASS 9

******************************************************************************



 NODE   VOLTAGE     NODE   VOLTAGE     NODE   VOLTAGE     NODE   VOLTAGE


(   IN)    0.0000  (  OUT)     .1837  (N14530) 98.78E-09 (N14684)    6.0498     

(N14719)   10.0000 (X_U1.6)    1.5033 (X_U1.7)   -1.8466 (X_U1.8)   -1.8466     

(X_U1.9)    0.0000 (X_U1.10)    5.4100                   (X_U1.11)    9.9203    

(X_U1.12)   10.0000                   (X_U1.13)    5.4379                       

(X_U1.14)    5.4100                   (X_U1.53)    9.0000                       

(X_U1.54)    1.0000                   (X_U1.90)  -40.6060                       

(X_U1.91)   40.0000                   (X_U1.92)  -40.0000                       

(X_U1.99)    5.0000                   




    VOLTAGE SOURCE CURRENTS
    NAME         CURRENT

    V_V1         1.006E-11
    V_V2        -1.013E+00
    X_U1.vb      1.503E-05
    X_U1.vc      8.817E-12
    X_U1.ve     -4.061E-02
    X_U1.vlim   -4.061E-02
    X_U1.vlp    -8.061E-11
    X_U1.vln     1.188E-05

    TOTAL POWER DISSIPATION   1.02E+01  WATTS


**** 07/21/23 18:38:39 ******* PSpice 17.4.0 (Nov 2018) ******* ID# 0 ********

 ** Profile: "SCHEMATIC1-MC_WC_Exam"  [ D:\Ian_Jung\workplace\PSpice\Monte_Carlo-Worst_Case-PSpiceFiles\SCHEMATIC1\MC_WC_Exam.sim ] 


 ****     INITIAL TRANSIENT SOLUTION       TEMPERATURE =   27.000 DEG C

 ****     CURRENT STEP                     V_V1 =    9.7   

                      MONTE CARLO PASS 10

******************************************************************************



 NODE   VOLTAGE     NODE   VOLTAGE     NODE   VOLTAGE     NODE   VOLTAGE


(   IN)    0.0000  (  OUT)     .1837  (N14530) 95.88E-09 (N14684)    6.1712     

(N14719)   10.0000 (X_U1.6)    1.5043 (X_U1.7)   -1.8466 (X_U1.8)   -1.8466     

(X_U1.9)    0.0000 (X_U1.10)    5.5314                   (X_U1.11)    9.9202    

(X_U1.12)   10.0000                   (X_U1.13)    5.5593                       

(X_U1.14)    5.5314                   (X_U1.53)    9.0000                       

(X_U1.54)    1.0000                   (X_U1.90)  -40.6060                       

(X_U1.91)   40.0000                   (X_U1.92)  -40.0000                       

(X_U1.99)    5.0000                   




    VOLTAGE SOURCE CURRENTS
    NAME         CURRENT

    V_V1         1.006E-11
    V_V2        -9.575E-01
    X_U1.vb      1.504E-05
    X_U1.vc      8.817E-12
    X_U1.ve     -4.061E-02
    X_U1.vlim   -4.061E-02
    X_U1.vlp    -8.061E-11
    X_U1.vln     1.189E-05

    TOTAL POWER DISSIPATION   9.62E+00  WATTS


**** 07/21/23 18:38:39 ******* PSpice 17.4.0 (Nov 2018) ******* ID# 0 ********

 ** Profile: "SCHEMATIC1-MC_WC_Exam"  [ D:\Ian_Jung\workplace\PSpice\Monte_Carlo-Worst_Case-PSpiceFiles\SCHEMATIC1\MC_WC_Exam.sim ] 


 ****     SORTED DEVIATIONS OF V(OUT)      TEMPERATURE =   27.000 DEG C

 ****     CURRENT STEP                     V_V1 =    9.7   

                      MONTE CARLO SUMMARY

******************************************************************************





Mean Deviation =    7.4902
Sigma          =    6.0538

 RUN                    MAX DEVIATION FROM NOMINAL

Pass   10               9.6325  (1.59 sigma)  higher  at T =     .0419
                        (   5.3426E+03% of Nominal)

Pass    8               9.6325  (1.59 sigma)  higher  at T =     .042 
                        (   5.3426E+03% of Nominal)

Pass    3               9.6325  (1.59 sigma)  higher  at T =     .0419
                        (   5.3426E+03% of Nominal)

Pass    7               9.6325  (1.59 sigma)  higher  at T =     .0419
                        (   5.3426E+03% of Nominal)

Pass    6               9.6325  (1.59 sigma)  higher  at T =    1.9767E-03
                        (   5.3425E+03% of Nominal)

Pass    9               9.6325  (1.59 sigma)  higher  at T =     .022 
                        (   5.3425E+03% of Nominal)

Pass    4               9.6324  (1.59 sigma)  lower  at T =    2.1202E-03
                        (   1.8719% of Nominal)

Pass    2               9.6292  (1.59 sigma)  higher  at T =     .0115
                        (   5.3372E+03% of Nominal)

Pass    5               9.6202  (1.59 sigma)  higher  at T =     .0115
                        (   5.3323E+03% of Nominal)


**** 07/21/23 18:38:39 ******* PSpice 17.4.0 (Nov 2018) ******* ID# 0 ********

 ** Profile: "SCHEMATIC1-MC_WC_Exam"  [ D:\Ian_Jung\workplace\PSpice\Monte_Carlo-Worst_Case-PSpiceFiles\SCHEMATIC1\MC_WC_Exam.sim ] 


 ****     INITIAL TRANSIENT SOLUTION       TEMPERATURE =   27.000 DEG C

 ****     CURRENT STEP                     V_V1 =    9.8   

                      MONTE CARLO NOMINAL

******************************************************************************



 NODE   VOLTAGE     NODE   VOLTAGE     NODE   VOLTAGE     NODE   VOLTAGE


(   IN)    0.0000  (  OUT)     .1837  (N14530) 100.6E-09 (N14684)    6.3000     

(N14719)   10.0000 (X_U1.6)    1.5053 (X_U1.7)   -1.8466 (X_U1.8)   -1.8466     

(X_U1.9)    0.0000 (X_U1.10)    5.6602                   (X_U1.11)    9.9202    

(X_U1.12)   10.0000                   (X_U1.13)    5.6881                       

(X_U1.14)    5.6602                   (X_U1.53)    9.0000                       

(X_U1.54)    1.0000                   (X_U1.90)  -40.6060                       

(X_U1.91)   40.0000                   (X_U1.92)  -40.0000                       

(X_U1.99)    5.0000                   




    VOLTAGE SOURCE CURRENTS
    NAME         CURRENT

    V_V1         1.006E-11
    V_V2        -1.001E+00
    X_U1.vb      1.505E-05
    X_U1.vc      8.817E-12
    X_U1.ve     -4.061E-02
    X_U1.vlim   -4.061E-02
    X_U1.vlp    -8.061E-11
    X_U1.vln     1.190E-05

    TOTAL POWER DISSIPATION   1.00E+01  WATTS


**** 07/21/23 18:38:39 ******* PSpice 17.4.0 (Nov 2018) ******* ID# 0 ********

 ** Profile: "SCHEMATIC1-MC_WC_Exam"  [ D:\Ian_Jung\workplace\PSpice\Monte_Carlo-Worst_Case-PSpiceFiles\SCHEMATIC1\MC_WC_Exam.sim ] 


 ****     INITIAL TRANSIENT SOLUTION       TEMPERATURE =   27.000 DEG C

 ****     CURRENT STEP                     V_V1 =    9.8   

                      MONTE CARLO PASS 2

******************************************************************************



 NODE   VOLTAGE     NODE   VOLTAGE     NODE   VOLTAGE     NODE   VOLTAGE


(   IN)    0.0000  (  OUT)     .1837  (N14530) 101.8E-09 (N14684)    6.1094     

(N14719)   10.0000 (X_U1.6)    1.5038 (X_U1.7)   -1.8466 (X_U1.8)   -1.8466     

(X_U1.9)    0.0000 (X_U1.10)    5.4697                   (X_U1.11)    9.9202    

(X_U1.12)   10.0000                   (X_U1.13)    5.4976                       

(X_U1.14)    5.4697                   (X_U1.53)    9.0000                       

(X_U1.54)    1.0000                   (X_U1.90)  -40.6060                       

(X_U1.91)   40.0000                   (X_U1.92)  -40.0000                       

(X_U1.99)    5.0000                   




    VOLTAGE SOURCE CURRENTS
    NAME         CURRENT

    V_V1         1.006E-11
    V_V2        -1.061E+00
    X_U1.vb      1.504E-05
    X_U1.vc      8.817E-12
    X_U1.ve     -4.061E-02
    X_U1.vlim   -4.061E-02
    X_U1.vlp    -8.061E-11
    X_U1.vln     1.188E-05

    TOTAL POWER DISSIPATION   1.06E+01  WATTS


**** 07/21/23 18:38:39 ******* PSpice 17.4.0 (Nov 2018) ******* ID# 0 ********

 ** Profile: "SCHEMATIC1-MC_WC_Exam"  [ D:\Ian_Jung\workplace\PSpice\Monte_Carlo-Worst_Case-PSpiceFiles\SCHEMATIC1\MC_WC_Exam.sim ] 


 ****     INITIAL TRANSIENT SOLUTION       TEMPERATURE =   27.000 DEG C

 ****     CURRENT STEP                     V_V1 =    9.8   

                      MONTE CARLO PASS 3

******************************************************************************



 NODE   VOLTAGE     NODE   VOLTAGE     NODE   VOLTAGE     NODE   VOLTAGE


(   IN)    0.0000  (  OUT)     .1837  (N14530) 94.54E-09 (N14684)    6.0727     

(N14719)   10.0000 (X_U1.6)    1.5035 (X_U1.7)   -1.8466 (X_U1.8)   -1.8466     

(X_U1.9)    0.0000 (X_U1.10)    5.4329                   (X_U1.11)    9.9203    

(X_U1.12)   10.0000                   (X_U1.13)    5.4608                       

(X_U1.14)    5.4329                   (X_U1.53)    9.0000                       

(X_U1.54)    1.0000                   (X_U1.90)  -40.6060                       

(X_U1.91)   40.0000                   (X_U1.92)  -40.0000                       

(X_U1.99)    5.0000                   




    VOLTAGE SOURCE CURRENTS
    NAME         CURRENT

    V_V1         1.006E-11
    V_V2        -1.052E+00
    X_U1.vb      1.503E-05
    X_U1.vc      8.817E-12
    X_U1.ve     -4.061E-02
    X_U1.vlim   -4.061E-02
    X_U1.vlp    -8.061E-11
    X_U1.vln     1.188E-05

    TOTAL POWER DISSIPATION   1.06E+01  WATTS


**** 07/21/23 18:38:39 ******* PSpice 17.4.0 (Nov 2018) ******* ID# 0 ********

 ** Profile: "SCHEMATIC1-MC_WC_Exam"  [ D:\Ian_Jung\workplace\PSpice\Monte_Carlo-Worst_Case-PSpiceFiles\SCHEMATIC1\MC_WC_Exam.sim ] 


 ****     INITIAL TRANSIENT SOLUTION       TEMPERATURE =   27.000 DEG C

 ****     CURRENT STEP                     V_V1 =    9.8   

                      MONTE CARLO PASS 4

******************************************************************************



 NODE   VOLTAGE     NODE   VOLTAGE     NODE   VOLTAGE     NODE   VOLTAGE


(   IN)    0.0000  (  OUT)     .1837  (N14530) 101.9E-09 (N14684)    6.3421     

(N14719)   10.0000 (X_U1.6)    1.5057 (X_U1.7)   -1.8466 (X_U1.8)   -1.8466     

(X_U1.9)    0.0000 (X_U1.10)    5.7022                   (X_U1.11)    9.9201    

(X_U1.12)   10.0000                   (X_U1.13)    5.7302                       

(X_U1.14)    5.7022                   (X_U1.53)    9.0000                       

(X_U1.54)    1.0000                   (X_U1.90)  -40.6060                       

(X_U1.91)   40.0000                   (X_U1.92)  -40.0000                       

(X_U1.99)    5.0000                   




    VOLTAGE SOURCE CURRENTS
    NAME         CURRENT

    V_V1         1.006E-11
    V_V2        -1.038E+00
    X_U1.vb      1.506E-05
    X_U1.vc      8.817E-12
    X_U1.ve     -4.061E-02
    X_U1.vlim   -4.061E-02
    X_U1.vlp    -8.061E-11
    X_U1.vln     1.190E-05

    TOTAL POWER DISSIPATION   1.04E+01  WATTS


**** 07/21/23 18:38:39 ******* PSpice 17.4.0 (Nov 2018) ******* ID# 0 ********

 ** Profile: "SCHEMATIC1-MC_WC_Exam"  [ D:\Ian_Jung\workplace\PSpice\Monte_Carlo-Worst_Case-PSpiceFiles\SCHEMATIC1\MC_WC_Exam.sim ] 


 ****     INITIAL TRANSIENT SOLUTION       TEMPERATURE =   27.000 DEG C

 ****     CURRENT STEP                     V_V1 =    9.8   

                      MONTE CARLO PASS 5

******************************************************************************



 NODE   VOLTAGE     NODE   VOLTAGE     NODE   VOLTAGE     NODE   VOLTAGE


(   IN)    0.0000  (  OUT)     .1837  (N14530) 107.8E-09 (N14684)    6.1693     

(N14719)   10.0000 (X_U1.6)    1.5043 (X_U1.7)   -1.8466 (X_U1.8)   -1.8466     

(X_U1.9)    0.0000 (X_U1.10)    5.5295                   (X_U1.11)    9.9202    

(X_U1.12)   10.0000                   (X_U1.13)    5.5574                       

(X_U1.14)    5.5295                   (X_U1.53)    9.0000                       

(X_U1.54)    1.0000                   (X_U1.90)  -40.6060                       

(X_U1.91)   40.0000                   (X_U1.92)  -40.0000                       

(X_U1.99)    5.0000                   




    VOLTAGE SOURCE CURRENTS
    NAME         CURRENT

    V_V1         1.006E-11
    V_V2        -1.054E+00
    X_U1.vb      1.504E-05
    X_U1.vc      8.817E-12
    X_U1.ve     -4.061E-02
    X_U1.vlim   -4.061E-02
    X_U1.vlp    -8.061E-11
    X_U1.vln     1.189E-05

    TOTAL POWER DISSIPATION   1.06E+01  WATTS


**** 07/21/23 18:38:39 ******* PSpice 17.4.0 (Nov 2018) ******* ID# 0 ********

 ** Profile: "SCHEMATIC1-MC_WC_Exam"  [ D:\Ian_Jung\workplace\PSpice\Monte_Carlo-Worst_Case-PSpiceFiles\SCHEMATIC1\MC_WC_Exam.sim ] 


 ****     INITIAL TRANSIENT SOLUTION       TEMPERATURE =   27.000 DEG C

 ****     CURRENT STEP                     V_V1 =    9.8   

                      MONTE CARLO PASS 6

******************************************************************************



 NODE   VOLTAGE     NODE   VOLTAGE     NODE   VOLTAGE     NODE   VOLTAGE


(   IN)    0.0000  (  OUT)     .1837  (N14530) 92.03E-09 (N14684)    6.2150     

(N14719)   10.0000 (X_U1.6)    1.5046 (X_U1.7)   -1.8466 (X_U1.8)   -1.8466     

(X_U1.9)    0.0000 (X_U1.10)    5.5752                   (X_U1.11)    9.9202    

(X_U1.12)   10.0000                   (X_U1.13)    5.6032                       

(X_U1.14)    5.5752                   (X_U1.53)    9.0000                       

(X_U1.54)    1.0000                   (X_U1.90)  -40.6060                       

(X_U1.91)   40.0000                   (X_U1.92)  -40.0000                       

(X_U1.99)    5.0000                   




    VOLTAGE SOURCE CURRENTS
    NAME         CURRENT

    V_V1         1.006E-11
    V_V2        -9.992E-01
    X_U1.vb      1.505E-05
    X_U1.vc      8.817E-12
    X_U1.ve     -4.061E-02
    X_U1.vlim   -4.061E-02
    X_U1.vlp    -8.061E-11
    X_U1.vln     1.189E-05

    TOTAL POWER DISSIPATION   1.00E+01  WATTS


**** 07/21/23 18:38:39 ******* PSpice 17.4.0 (Nov 2018) ******* ID# 0 ********

 ** Profile: "SCHEMATIC1-MC_WC_Exam"  [ D:\Ian_Jung\workplace\PSpice\Monte_Carlo-Worst_Case-PSpiceFiles\SCHEMATIC1\MC_WC_Exam.sim ] 


 ****     INITIAL TRANSIENT SOLUTION       TEMPERATURE =   27.000 DEG C

 ****     CURRENT STEP                     V_V1 =    9.8   

                      MONTE CARLO PASS 7

******************************************************************************



 NODE   VOLTAGE     NODE   VOLTAGE     NODE   VOLTAGE     NODE   VOLTAGE


(   IN)    0.0000  (  OUT)     .1837  (N14530) 98.35E-09 (N14684)    5.9667     

(N14719)   10.0000 (X_U1.6)    1.5026 (X_U1.7)   -1.8466 (X_U1.8)   -1.8466     

(X_U1.9)    0.0000 (X_U1.10)    5.3269                   (X_U1.11)    9.9203    

(X_U1.12)   10.0000                   (X_U1.13)    5.3548                       

(X_U1.14)    5.3269                   (X_U1.53)    9.0000                       

(X_U1.54)    1.0000                   (X_U1.90)  -40.6060                       

(X_U1.91)   40.0000                   (X_U1.92)  -40.0000                       

(X_U1.99)    5.0000                   




    VOLTAGE SOURCE CURRENTS
    NAME         CURRENT

    V_V1         1.006E-11
    V_V2        -9.953E-01
    X_U1.vb      1.503E-05
    X_U1.vc      8.817E-12
    X_U1.ve     -4.061E-02
    X_U1.vlim   -4.061E-02
    X_U1.vlp    -8.061E-11
    X_U1.vln     1.187E-05

    TOTAL POWER DISSIPATION   9.99E+00  WATTS


**** 07/21/23 18:38:39 ******* PSpice 17.4.0 (Nov 2018) ******* ID# 0 ********

 ** Profile: "SCHEMATIC1-MC_WC_Exam"  [ D:\Ian_Jung\workplace\PSpice\Monte_Carlo-Worst_Case-PSpiceFiles\SCHEMATIC1\MC_WC_Exam.sim ] 


 ****     INITIAL TRANSIENT SOLUTION       TEMPERATURE =   27.000 DEG C

 ****     CURRENT STEP                     V_V1 =    9.8   

                      MONTE CARLO PASS 8

******************************************************************************



 NODE   VOLTAGE     NODE   VOLTAGE     NODE   VOLTAGE     NODE   VOLTAGE


(   IN)    0.0000  (  OUT)     .1837  (N14530) 93.42E-09 (N14684)    5.9244     

(N14719)   10.0000 (X_U1.6)    1.5023 (X_U1.7)   -1.8466 (X_U1.8)   -1.8466     

(X_U1.9)    0.0000 (X_U1.10)    5.2847                   (X_U1.11)    9.9203    

(X_U1.12)   10.0000                   (X_U1.13)    5.3125                       

(X_U1.14)    5.2847                   (X_U1.53)    9.0000                       

(X_U1.54)    1.0000                   (X_U1.90)  -40.6060                       

(X_U1.91)   40.0000                   (X_U1.92)  -40.0000                       

(X_U1.99)    5.0000                   




    VOLTAGE SOURCE CURRENTS
    NAME         CURRENT

    V_V1         1.006E-11
    V_V2        -1.028E+00
    X_U1.vb      1.502E-05
    X_U1.vc      8.817E-12
    X_U1.ve     -4.061E-02
    X_U1.vlim   -4.061E-02
    X_U1.vlp    -8.061E-11
    X_U1.vln     1.187E-05

    TOTAL POWER DISSIPATION   1.03E+01  WATTS


**** 07/21/23 18:38:39 ******* PSpice 17.4.0 (Nov 2018) ******* ID# 0 ********

 ** Profile: "SCHEMATIC1-MC_WC_Exam"  [ D:\Ian_Jung\workplace\PSpice\Monte_Carlo-Worst_Case-PSpiceFiles\SCHEMATIC1\MC_WC_Exam.sim ] 


 ****     INITIAL TRANSIENT SOLUTION       TEMPERATURE =   27.000 DEG C

 ****     CURRENT STEP                     V_V1 =    9.8   

                      MONTE CARLO PASS 9

******************************************************************************



 NODE   VOLTAGE     NODE   VOLTAGE     NODE   VOLTAGE     NODE   VOLTAGE


(   IN)    0.0000  (  OUT)     .1837  (N14530) 98.78E-09 (N14684)    6.0498     

(N14719)   10.0000 (X_U1.6)    1.5033 (X_U1.7)   -1.8466 (X_U1.8)   -1.8466     

(X_U1.9)    0.0000 (X_U1.10)    5.4100                   (X_U1.11)    9.9203    

(X_U1.12)   10.0000                   (X_U1.13)    5.4379                       

(X_U1.14)    5.4100                   (X_U1.53)    9.0000                       

(X_U1.54)    1.0000                   (X_U1.90)  -40.6060                       

(X_U1.91)   40.0000                   (X_U1.92)  -40.0000                       

(X_U1.99)    5.0000                   




    VOLTAGE SOURCE CURRENTS
    NAME         CURRENT

    V_V1         1.006E-11
    V_V2        -1.013E+00
    X_U1.vb      1.503E-05
    X_U1.vc      8.817E-12
    X_U1.ve     -4.061E-02
    X_U1.vlim   -4.061E-02
    X_U1.vlp    -8.061E-11
    X_U1.vln     1.188E-05

    TOTAL POWER DISSIPATION   1.02E+01  WATTS


**** 07/21/23 18:38:39 ******* PSpice 17.4.0 (Nov 2018) ******* ID# 0 ********

 ** Profile: "SCHEMATIC1-MC_WC_Exam"  [ D:\Ian_Jung\workplace\PSpice\Monte_Carlo-Worst_Case-PSpiceFiles\SCHEMATIC1\MC_WC_Exam.sim ] 


 ****     INITIAL TRANSIENT SOLUTION       TEMPERATURE =   27.000 DEG C

 ****     CURRENT STEP                     V_V1 =    9.8   

                      MONTE CARLO PASS 10

******************************************************************************



 NODE   VOLTAGE     NODE   VOLTAGE     NODE   VOLTAGE     NODE   VOLTAGE


(   IN)    0.0000  (  OUT)     .1837  (N14530) 95.88E-09 (N14684)    6.1712     

(N14719)   10.0000 (X_U1.6)    1.5043 (X_U1.7)   -1.8466 (X_U1.8)   -1.8466     

(X_U1.9)    0.0000 (X_U1.10)    5.5314                   (X_U1.11)    9.9202    

(X_U1.12)   10.0000                   (X_U1.13)    5.5593                       

(X_U1.14)    5.5314                   (X_U1.53)    9.0000                       

(X_U1.54)    1.0000                   (X_U1.90)  -40.6060                       

(X_U1.91)   40.0000                   (X_U1.92)  -40.0000                       

(X_U1.99)    5.0000                   




    VOLTAGE SOURCE CURRENTS
    NAME         CURRENT

    V_V1         1.006E-11
    V_V2        -9.575E-01
    X_U1.vb      1.504E-05
    X_U1.vc      8.817E-12
    X_U1.ve     -4.061E-02
    X_U1.vlim   -4.061E-02
    X_U1.vlp    -8.061E-11
    X_U1.vln     1.189E-05

    TOTAL POWER DISSIPATION   9.62E+00  WATTS


**** 07/21/23 18:38:39 ******* PSpice 17.4.0 (Nov 2018) ******* ID# 0 ********

 ** Profile: "SCHEMATIC1-MC_WC_Exam"  [ D:\Ian_Jung\workplace\PSpice\Monte_Carlo-Worst_Case-PSpiceFiles\SCHEMATIC1\MC_WC_Exam.sim ] 


 ****     SORTED DEVIATIONS OF V(OUT)      TEMPERATURE =   27.000 DEG C

 ****     CURRENT STEP                     V_V1 =    9.8   

                      MONTE CARLO SUMMARY

******************************************************************************





Mean Deviation =    7.4902
Sigma          =    6.0538

 RUN                    MAX DEVIATION FROM NOMINAL

Pass   10               9.6325  (1.59 sigma)  higher  at T =     .0419
                        (   5.3426E+03% of Nominal)

Pass    8               9.6325  (1.59 sigma)  higher  at T =     .042 
                        (   5.3426E+03% of Nominal)

Pass    3               9.6325  (1.59 sigma)  higher  at T =     .0419
                        (   5.3426E+03% of Nominal)

Pass    7               9.6325  (1.59 sigma)  higher  at T =     .0419
                        (   5.3426E+03% of Nominal)

Pass    6               9.6325  (1.59 sigma)  higher  at T =    1.9767E-03
                        (   5.3425E+03% of Nominal)

Pass    9               9.6325  (1.59 sigma)  higher  at T =     .022 
                        (   5.3425E+03% of Nominal)

Pass    4               9.6324  (1.59 sigma)  lower  at T =    2.1202E-03
                        (   1.8719% of Nominal)

Pass    2               9.6292  (1.59 sigma)  higher  at T =     .0115
                        (   5.3372E+03% of Nominal)

Pass    5               9.6202  (1.59 sigma)  higher  at T =     .0115
                        (   5.3323E+03% of Nominal)


**** 07/21/23 18:38:39 ******* PSpice 17.4.0 (Nov 2018) ******* ID# 0 ********

 ** Profile: "SCHEMATIC1-MC_WC_Exam"  [ D:\Ian_Jung\workplace\PSpice\Monte_Carlo-Worst_Case-PSpiceFiles\SCHEMATIC1\MC_WC_Exam.sim ] 


 ****     INITIAL TRANSIENT SOLUTION       TEMPERATURE =   27.000 DEG C

 ****     CURRENT STEP                     V_V1 =    9.9   

                      MONTE CARLO NOMINAL

******************************************************************************



 NODE   VOLTAGE     NODE   VOLTAGE     NODE   VOLTAGE     NODE   VOLTAGE


(   IN)    0.0000  (  OUT)     .1837  (N14530) 100.6E-09 (N14684)    6.3000     

(N14719)   10.0000 (X_U1.6)    1.5053 (X_U1.7)   -1.8466 (X_U1.8)   -1.8466     

(X_U1.9)    0.0000 (X_U1.10)    5.6602                   (X_U1.11)    9.9202    

(X_U1.12)   10.0000                   (X_U1.13)    5.6881                       

(X_U1.14)    5.6602                   (X_U1.53)    9.0000                       

(X_U1.54)    1.0000                   (X_U1.90)  -40.6060                       

(X_U1.91)   40.0000                   (X_U1.92)  -40.0000                       

(X_U1.99)    5.0000                   




    VOLTAGE SOURCE CURRENTS
    NAME         CURRENT

    V_V1         1.006E-11
    V_V2        -1.001E+00
    X_U1.vb      1.505E-05
    X_U1.vc      8.817E-12
    X_U1.ve     -4.061E-02
    X_U1.vlim   -4.061E-02
    X_U1.vlp    -8.061E-11
    X_U1.vln     1.190E-05

    TOTAL POWER DISSIPATION   1.00E+01  WATTS


**** 07/21/23 18:38:39 ******* PSpice 17.4.0 (Nov 2018) ******* ID# 0 ********

 ** Profile: "SCHEMATIC1-MC_WC_Exam"  [ D:\Ian_Jung\workplace\PSpice\Monte_Carlo-Worst_Case-PSpiceFiles\SCHEMATIC1\MC_WC_Exam.sim ] 


 ****     INITIAL TRANSIENT SOLUTION       TEMPERATURE =   27.000 DEG C

 ****     CURRENT STEP                     V_V1 =    9.9   

                      MONTE CARLO PASS 2

******************************************************************************



 NODE   VOLTAGE     NODE   VOLTAGE     NODE   VOLTAGE     NODE   VOLTAGE


(   IN)    0.0000  (  OUT)     .1837  (N14530) 101.8E-09 (N14684)    6.1094     

(N14719)   10.0000 (X_U1.6)    1.5038 (X_U1.7)   -1.8466 (X_U1.8)   -1.8466     

(X_U1.9)    0.0000 (X_U1.10)    5.4697                   (X_U1.11)    9.9202    

(X_U1.12)   10.0000                   (X_U1.13)    5.4976                       

(X_U1.14)    5.4697                   (X_U1.53)    9.0000                       

(X_U1.54)    1.0000                   (X_U1.90)  -40.6060                       

(X_U1.91)   40.0000                   (X_U1.92)  -40.0000                       

(X_U1.99)    5.0000                   




    VOLTAGE SOURCE CURRENTS
    NAME         CURRENT

    V_V1         1.006E-11
    V_V2        -1.061E+00
    X_U1.vb      1.504E-05
    X_U1.vc      8.817E-12
    X_U1.ve     -4.061E-02
    X_U1.vlim   -4.061E-02
    X_U1.vlp    -8.061E-11
    X_U1.vln     1.188E-05

    TOTAL POWER DISSIPATION   1.06E+01  WATTS


**** 07/21/23 18:38:39 ******* PSpice 17.4.0 (Nov 2018) ******* ID# 0 ********

 ** Profile: "SCHEMATIC1-MC_WC_Exam"  [ D:\Ian_Jung\workplace\PSpice\Monte_Carlo-Worst_Case-PSpiceFiles\SCHEMATIC1\MC_WC_Exam.sim ] 


 ****     INITIAL TRANSIENT SOLUTION       TEMPERATURE =   27.000 DEG C

 ****     CURRENT STEP                     V_V1 =    9.9   

                      MONTE CARLO PASS 3

******************************************************************************



 NODE   VOLTAGE     NODE   VOLTAGE     NODE   VOLTAGE     NODE   VOLTAGE


(   IN)    0.0000  (  OUT)     .1837  (N14530) 94.54E-09 (N14684)    6.0727     

(N14719)   10.0000 (X_U1.6)    1.5035 (X_U1.7)   -1.8466 (X_U1.8)   -1.8466     

(X_U1.9)    0.0000 (X_U1.10)    5.4329                   (X_U1.11)    9.9203    

(X_U1.12)   10.0000                   (X_U1.13)    5.4608                       

(X_U1.14)    5.4329                   (X_U1.53)    9.0000                       

(X_U1.54)    1.0000                   (X_U1.90)  -40.6060                       

(X_U1.91)   40.0000                   (X_U1.92)  -40.0000                       

(X_U1.99)    5.0000                   




    VOLTAGE SOURCE CURRENTS
    NAME         CURRENT

    V_V1         1.006E-11
    V_V2        -1.052E+00
    X_U1.vb      1.503E-05
    X_U1.vc      8.817E-12
    X_U1.ve     -4.061E-02
    X_U1.vlim   -4.061E-02
    X_U1.vlp    -8.061E-11
    X_U1.vln     1.188E-05

    TOTAL POWER DISSIPATION   1.06E+01  WATTS


**** 07/21/23 18:38:39 ******* PSpice 17.4.0 (Nov 2018) ******* ID# 0 ********

 ** Profile: "SCHEMATIC1-MC_WC_Exam"  [ D:\Ian_Jung\workplace\PSpice\Monte_Carlo-Worst_Case-PSpiceFiles\SCHEMATIC1\MC_WC_Exam.sim ] 


 ****     INITIAL TRANSIENT SOLUTION       TEMPERATURE =   27.000 DEG C

 ****     CURRENT STEP                     V_V1 =    9.9   

                      MONTE CARLO PASS 4

******************************************************************************



 NODE   VOLTAGE     NODE   VOLTAGE     NODE   VOLTAGE     NODE   VOLTAGE


(   IN)    0.0000  (  OUT)     .1837  (N14530) 101.9E-09 (N14684)    6.3421     

(N14719)   10.0000 (X_U1.6)    1.5057 (X_U1.7)   -1.8466 (X_U1.8)   -1.8466     

(X_U1.9)    0.0000 (X_U1.10)    5.7022                   (X_U1.11)    9.9201    

(X_U1.12)   10.0000                   (X_U1.13)    5.7302                       

(X_U1.14)    5.7022                   (X_U1.53)    9.0000                       

(X_U1.54)    1.0000                   (X_U1.90)  -40.6060                       

(X_U1.91)   40.0000                   (X_U1.92)  -40.0000                       

(X_U1.99)    5.0000                   




    VOLTAGE SOURCE CURRENTS
    NAME         CURRENT

    V_V1         1.006E-11
    V_V2        -1.038E+00
    X_U1.vb      1.506E-05
    X_U1.vc      8.817E-12
    X_U1.ve     -4.061E-02
    X_U1.vlim   -4.061E-02
    X_U1.vlp    -8.061E-11
    X_U1.vln     1.190E-05

    TOTAL POWER DISSIPATION   1.04E+01  WATTS


**** 07/21/23 18:38:39 ******* PSpice 17.4.0 (Nov 2018) ******* ID# 0 ********

 ** Profile: "SCHEMATIC1-MC_WC_Exam"  [ D:\Ian_Jung\workplace\PSpice\Monte_Carlo-Worst_Case-PSpiceFiles\SCHEMATIC1\MC_WC_Exam.sim ] 


 ****     INITIAL TRANSIENT SOLUTION       TEMPERATURE =   27.000 DEG C

 ****     CURRENT STEP                     V_V1 =    9.9   

                      MONTE CARLO PASS 5

******************************************************************************



 NODE   VOLTAGE     NODE   VOLTAGE     NODE   VOLTAGE     NODE   VOLTAGE


(   IN)    0.0000  (  OUT)     .1837  (N14530) 107.8E-09 (N14684)    6.1693     

(N14719)   10.0000 (X_U1.6)    1.5043 (X_U1.7)   -1.8466 (X_U1.8)   -1.8466     

(X_U1.9)    0.0000 (X_U1.10)    5.5295                   (X_U1.11)    9.9202    

(X_U1.12)   10.0000                   (X_U1.13)    5.5574                       

(X_U1.14)    5.5295                   (X_U1.53)    9.0000                       

(X_U1.54)    1.0000                   (X_U1.90)  -40.6060                       

(X_U1.91)   40.0000                   (X_U1.92)  -40.0000                       

(X_U1.99)    5.0000                   




    VOLTAGE SOURCE CURRENTS
    NAME         CURRENT

    V_V1         1.006E-11
    V_V2        -1.054E+00
    X_U1.vb      1.504E-05
    X_U1.vc      8.817E-12
    X_U1.ve     -4.061E-02
    X_U1.vlim   -4.061E-02
    X_U1.vlp    -8.061E-11
    X_U1.vln     1.189E-05

    TOTAL POWER DISSIPATION   1.06E+01  WATTS


**** 07/21/23 18:38:39 ******* PSpice 17.4.0 (Nov 2018) ******* ID# 0 ********

 ** Profile: "SCHEMATIC1-MC_WC_Exam"  [ D:\Ian_Jung\workplace\PSpice\Monte_Carlo-Worst_Case-PSpiceFiles\SCHEMATIC1\MC_WC_Exam.sim ] 


 ****     INITIAL TRANSIENT SOLUTION       TEMPERATURE =   27.000 DEG C

 ****     CURRENT STEP                     V_V1 =    9.9   

                      MONTE CARLO PASS 6

******************************************************************************



 NODE   VOLTAGE     NODE   VOLTAGE     NODE   VOLTAGE     NODE   VOLTAGE


(   IN)    0.0000  (  OUT)     .1837  (N14530) 92.03E-09 (N14684)    6.2150     

(N14719)   10.0000 (X_U1.6)    1.5046 (X_U1.7)   -1.8466 (X_U1.8)   -1.8466     

(X_U1.9)    0.0000 (X_U1.10)    5.5752                   (X_U1.11)    9.9202    

(X_U1.12)   10.0000                   (X_U1.13)    5.6032                       

(X_U1.14)    5.5752                   (X_U1.53)    9.0000                       

(X_U1.54)    1.0000                   (X_U1.90)  -40.6060                       

(X_U1.91)   40.0000                   (X_U1.92)  -40.0000                       

(X_U1.99)    5.0000                   




    VOLTAGE SOURCE CURRENTS
    NAME         CURRENT

    V_V1         1.006E-11
    V_V2        -9.992E-01
    X_U1.vb      1.505E-05
    X_U1.vc      8.817E-12
    X_U1.ve     -4.061E-02
    X_U1.vlim   -4.061E-02
    X_U1.vlp    -8.061E-11
    X_U1.vln     1.189E-05

    TOTAL POWER DISSIPATION   1.00E+01  WATTS


**** 07/21/23 18:38:39 ******* PSpice 17.4.0 (Nov 2018) ******* ID# 0 ********

 ** Profile: "SCHEMATIC1-MC_WC_Exam"  [ D:\Ian_Jung\workplace\PSpice\Monte_Carlo-Worst_Case-PSpiceFiles\SCHEMATIC1\MC_WC_Exam.sim ] 


 ****     INITIAL TRANSIENT SOLUTION       TEMPERATURE =   27.000 DEG C

 ****     CURRENT STEP                     V_V1 =    9.9   

                      MONTE CARLO PASS 7

******************************************************************************



 NODE   VOLTAGE     NODE   VOLTAGE     NODE   VOLTAGE     NODE   VOLTAGE


(   IN)    0.0000  (  OUT)     .1837  (N14530) 98.35E-09 (N14684)    5.9667     

(N14719)   10.0000 (X_U1.6)    1.5026 (X_U1.7)   -1.8466 (X_U1.8)   -1.8466     

(X_U1.9)    0.0000 (X_U1.10)    5.3269                   (X_U1.11)    9.9203    

(X_U1.12)   10.0000                   (X_U1.13)    5.3548                       

(X_U1.14)    5.3269                   (X_U1.53)    9.0000                       

(X_U1.54)    1.0000                   (X_U1.90)  -40.6060                       

(X_U1.91)   40.0000                   (X_U1.92)  -40.0000                       

[...]

 ****     CURRENT STEP                     V_V1 =   10.4  

                      MONTE CARLO PASS 10

******************************************************************************



 NODE   VOLTAGE     NODE   VOLTAGE     NODE   VOLTAGE     NODE   VOLTAGE


(   IN)    0.0000  (  OUT)     .1837  (N14530) 95.88E-09 (N14684)    6.1712     

(N14719)   10.0000 (X_U1.6)    1.5043 (X_U1.7)   -1.8466 (X_U1.8)   -1.8466     

(X_U1.9)    0.0000 (X_U1.10)    5.5314                   (X_U1.11)    9.9202    

(X_U1.12)   10.0000                   (X_U1.13)    5.5593                       

(X_U1.14)    5.5314                   (X_U1.53)    9.0000                       

(X_U1.54)    1.0000                   (X_U1.90)  -40.6060                       

(X_U1.91)   40.0000                   (X_U1.92)  -40.0000                       

(X_U1.99)    5.0000                   




    VOLTAGE SOURCE CURRENTS
    NAME         CURRENT

    V_V1         1.006E-11
    V_V2        -9.575E-01
    X_U1.vb      1.504E-05
    X_U1.vc      8.817E-12
    X_U1.ve     -4.061E-02
    X_U1.vlim   -4.061E-02
    X_U1.vlp    -8.061E-11
    X_U1.vln     1.189E-05

    TOTAL POWER DISSIPATION   9.62E+00  WATTS


**** 07/21/23 18:38:39 ******* PSpice 17.4.0 (Nov 2018) ******* ID# 0 ********

 ** Profile: "SCHEMATIC1-MC_WC_Exam"  [ D:\Ian_Jung\workplace\PSpice\Monte_Carlo-Worst_Case-PSpiceFiles\SCHEMATIC1\MC_WC_Exam.sim ] 


 ****     SORTED DEVIATIONS OF V(OUT)      TEMPERATURE =   27.000 DEG C

 ****     CURRENT STEP                     V_V1 =   10.4  

                      MONTE CARLO SUMMARY

******************************************************************************





Mean Deviation =    7.4902
Sigma          =    6.0538

 RUN                    MAX DEVIATION FROM NOMINAL

Pass   10               9.6325  (1.59 sigma)  higher  at T =     .0419
                        (   5.3426E+03% of Nominal)

Pass    8               9.6325  (1.59 sigma)  higher  at T =     .042 
                        (   5.3426E+03% of Nominal)

Pass    3               9.6325  (1.59 sigma)  higher  at T =     .0419
                        (   5.3426E+03% of Nominal)

Pass    7               9.6325  (1.59 sigma)  higher  at T =     .0419
                        (   5.3426E+03% of Nominal)

Pass    6               9.6325  (1.59 sigma)  higher  at T =    1.9767E-03
                        (   5.3425E+03% of Nominal)

Pass    9               9.6325  (1.59 sigma)  higher  at T =     .022 
                        (   5.3425E+03% of Nominal)

Pass    4               9.6324  (1.59 sigma)  lower  at T =    2.1202E-03
                        (   1.8719% of Nominal)

Pass    2               9.6292  (1.59 sigma)  higher  at T =     .0115
                        (   5.3372E+03% of Nominal)

Pass    5               9.6202  (1.59 sigma)  higher  at T =     .0115
                        (   5.3323E+03% of Nominal)


**** 07/21/23 18:38:39 ******* PSpice 17.4.0 (Nov 2018) ******* ID# 0 ********

 ** Profile: "SCHEMATIC1-MC_WC_Exam"  [ D:\Ian_Jung\workplace\PSpice\Monte_Carlo-Worst_Case-PSpiceFiles\SCHEMATIC1\MC_WC_Exam.sim ] 


 ****     INITIAL TRANSIENT SOLUTION       TEMPERATURE =   27.000 DEG C

 ****     CURRENT STEP                     V_V1 =   10.5  

                      MONTE CARLO NOMINAL

******************************************************************************



 NODE   VOLTAGE     NODE   VOLTAGE     NODE   VOLTAGE     NODE   VOLTAGE


(   IN)    0.0000  (  OUT)     .1837  (N14530) 100.6E-09 (N14684)    6.3000     

(N14719)   10.0000 (X_U1.6)    1.5053 (X_U1.7)   -1.8466 (X_U1.8)   -1.8466     

(X_U1.9)    0.0000 (X_U1.10)    5.6602                   (X_U1.11)    9.9202    

(X_U1.12)   10.0000                   (X_U1.13)    5.6881                       

(X_U1.14)    5.6602                   (X_U1.53)    9.0000                       

(X_U1.54)    1.0000                   (X_U1.90)  -40.6060                       

(X_U1.91)   40.0000                   (X_U1.92)  -40.0000                       

(X_U1.99)    5.0000                   




    VOLTAGE SOURCE CURRENTS
    NAME         CURRENT

    V_V1         1.006E-11
    V_V2        -1.001E+00
    X_U1.vb      1.505E-05
    X_U1.vc      8.817E-12
    X_U1.ve     -4.061E-02
    X_U1.vlim   -4.061E-02
    X_U1.vlp    -8.061E-11
    X_U1.vln     1.190E-05

    TOTAL POWER DISSIPATION   1.00E+01  WATTS


**** 07/21/23 18:38:39 ******* PSpice 17.4.0 (Nov 2018) ******* ID# 0 ********

 ** Profile: "SCHEMATIC1-MC_WC_Exam"  [ D:\Ian_Jung\workplace\PSpice\Monte_Carlo-Worst_Case-PSpiceFiles\SCHEMATIC1\MC_WC_Exam.sim ] 


 ****     INITIAL TRANSIENT SOLUTION       TEMPERATURE =   27.000 DEG C

 ****     CURRENT STEP                     V_V1 =   10.5  

                      MONTE CARLO PASS 2

******************************************************************************



 NODE   VOLTAGE     NODE   VOLTAGE     NODE   VOLTAGE     NODE   VOLTAGE


(   IN)    0.0000  (  OUT)     .1837  (N14530) 101.8E-09 (N14684)    6.1094     

(N14719)   10.0000 (X_U1.6)    1.5038 (X_U1.7)   -1.8466 (X_U1.8)   -1.8466     

(X_U1.9)    0.0000 (X_U1.10)    5.4697                   (X_U1.11)    9.9202    

(X_U1.12)   10.0000                   (X_U1.13)    5.4976                       

(X_U1.14)    5.4697                   (X_U1.53)    9.0000                       

(X_U1.54)    1.0000                   (X_U1.90)  -40.6060                       

(X_U1.91)   40.0000                   (X_U1.92)  -40.0000                       

(X_U1.99)    5.0000                   




    VOLTAGE SOURCE CURRENTS
    NAME         CURRENT

    V_V1         1.006E-11
    V_V2        -1.061E+00
    X_U1.vb      1.504E-05
    X_U1.vc      8.817E-12
    X_U1.ve     -4.061E-02
    X_U1.vlim   -4.061E-02
    X_U1.vlp    -8.061E-11
    X_U1.vln     1.188E-05

    TOTAL POWER DISSIPATION   1.06E+01  WATTS


**** 07/21/23 18:38:39 ******* PSpice 17.4.0 (Nov 2018) ******* ID# 0 ********

 ** Profile: "SCHEMATIC1-MC_WC_Exam"  [ D:\Ian_Jung\workplace\PSpice\Monte_Carlo-Worst_Case-PSpiceFiles\SCHEMATIC1\MC_WC_Exam.sim ] 


 ****     INITIAL TRANSIENT SOLUTION       TEMPERATURE =   27.000 DEG C

 ****     CURRENT STEP                     V_V1 =   10.5  

                      MONTE CARLO PASS 3

******************************************************************************



 NODE   VOLTAGE     NODE   VOLTAGE     NODE   VOLTAGE     NODE   VOLTAGE


(   IN)    0.0000  (  OUT)     .1837  (N14530) 94.54E-09 (N14684)    6.0727     

(N14719)   10.0000 (X_U1.6)    1.5035 (X_U1.7)   -1.8466 (X_U1.8)   -1.8466     

(X_U1.9)    0.0000 (X_U1.10)    5.4329                   (X_U1.11)    9.9203    

(X_U1.12)   10.0000                   (X_U1.13)    5.4608                       

(X_U1.14)    5.4329                   (X_U1.53)    9.0000                       

(X_U1.54)    1.0000                   (X_U1.90)  -40.6060                       

(X_U1.91)   40.0000                   (X_U1.92)  -40.0000                       

(X_U1.99)    5.0000                   




    VOLTAGE SOURCE CURRENTS
    NAME         CURRENT

    V_V1         1.006E-11
    V_V2        -1.052E+00
    X_U1.vb      1.503E-05
    X_U1.vc      8.817E-12
    X_U1.ve     -4.061E-02
    X_U1.vlim   -4.061E-02
    X_U1.vlp    -8.061E-11
    X_U1.vln     1.188E-05

    TOTAL POWER DISSIPATION   1.06E+01  WATTS


**** 07/21/23 18:38:39 ******* PSpice 17.4.0 (Nov 2018) ******* ID# 0 ********

 ** Profile: "SCHEMATIC1-MC_WC_Exam"  [ D:\Ian_Jung\workplace\PSpice\Monte_Carlo-Worst_Case-PSpiceFiles\SCHEMATIC1\MC_WC_Exam.sim ] 


 ****     INITIAL TRANSIENT SOLUTION       TEMPERATURE =   27.000 DEG C

 ****     CURRENT STEP                     V_V1 =   10.5  

                      MONTE CARLO PASS 4

******************************************************************************



 NODE   VOLTAGE     NODE   VOLTAGE     NODE   VOLTAGE     NODE   VOLTAGE


(   IN)    0.0000  (  OUT)     .1837  (N14530) 101.9E-09 (N14684)    6.3421     

(N14719)   10.0000 (X_U1.6)    1.5057 (X_U1.7)   -1.8466 (X_U1.8)   -1.8466     

(X_U1.9)    0.0000 (X_U1.10)    5.7022                   (X_U1.11)    9.9201    

(X_U1.12)   10.0000                   (X_U1.13)    5.7302                       

(X_U1.14)    5.7022                   (X_U1.53)    9.0000                       

(X_U1.54)    1.0000                   (X_U1.90)  -40.6060                       

(X_U1.91)   40.0000                   (X_U1.92)  -40.0000                       

(X_U1.99)    5.0000                   




    VOLTAGE SOURCE CURRENTS
    NAME         CURRENT

    V_V1         1.006E-11
    V_V2        -1.038E+00
    X_U1.vb      1.506E-05
    X_U1.vc      8.817E-12
    X_U1.ve     -4.061E-02
    X_U1.vlim   -4.061E-02
    X_U1.vlp    -8.061E-11
    X_U1.vln     1.190E-05

    TOTAL POWER DISSIPATION   1.04E+01  WATTS


**** 07/21/23 18:38:39 ******* PSpice 17.4.0 (Nov 2018) ******* ID# 0 ********

 ** Profile: "SCHEMATIC1-MC_WC_Exam"  [ D:\Ian_Jung\workplace\PSpice\Monte_Carlo-Worst_Case-PSpiceFiles\SCHEMATIC1\MC_WC_Exam.sim ] 


 ****     INITIAL TRANSIENT SOLUTION       TEMPERATURE =   27.000 DEG C

 ****     CURRENT STEP                     V_V1 =   10.5  

                      MONTE CARLO PASS 5

******************************************************************************



 NODE   VOLTAGE     NODE   VOLTAGE     NODE   VOLTAGE     NODE   VOLTAGE


(   IN)    0.0000  (  OUT)     .1837  (N14530) 107.8E-09 (N14684)    6.1693     

(N14719)   10.0000 (X_U1.6)    1.5043 (X_U1.7)   -1.8466 (X_U1.8)   -1.8466     

(X_U1.9)    0.0000 (X_U1.10)    5.5295                   (X_U1.11)    9.9202    

(X_U1.12)   10.0000                   (X_U1.13)    5.5574                       

(X_U1.14)    5.5295                   (X_U1.53)    9.0000                       

(X_U1.54)    1.0000                   (X_U1.90)  -40.6060                       

(X_U1.91)   40.0000                   (X_U1.92)  -40.0000                       

(X_U1.99)    5.0000                   




    VOLTAGE SOURCE CURRENTS
    NAME         CURRENT

    V_V1         1.006E-11
    V_V2        -1.054E+00
    X_U1.vb      1.504E-05
    X_U1.vc      8.817E-12
    X_U1.ve     -4.061E-02
    X_U1.vlim   -4.061E-02
    X_U1.vlp    -8.061E-11
    X_U1.vln     1.189E-05

    TOTAL POWER DISSIPATION   1.06E+01  WATTS


**** 07/21/23 18:38:39 ******* PSpice 17.4.0 (Nov 2018) ******* ID# 0 ********

 ** Profile: "SCHEMATIC1-MC_WC_Exam"  [ D:\Ian_Jung\workplace\PSpice\Monte_Carlo-Worst_Case-PSpiceFiles\SCHEMATIC1\MC_WC_Exam.sim ] 


 ****     INITIAL TRANSIENT SOLUTION       TEMPERATURE =   27.000 DEG C

 ****     CURRENT STEP                     V_V1 =   10.5  

                      MONTE CARLO PASS 6

******************************************************************************



 NODE   VOLTAGE     NODE   VOLTAGE     NODE   VOLTAGE     NODE   VOLTAGE


(   IN)    0.0000  (  OUT)     .1837  (N14530) 92.03E-09 (N14684)    6.2150     

(N14719)   10.0000 (X_U1.6)    1.5046 (X_U1.7)   -1.8466 (X_U1.8)   -1.8466     

(X_U1.9)    0.0000 (X_U1.10)    5.5752                   (X_U1.11)    9.9202    

(X_U1.12)   10.0000                   (X_U1.13)    5.6032                       

(X_U1.14)    5.5752                   (X_U1.53)    9.0000                       

(X_U1.54)    1.0000                   (X_U1.90)  -40.6060                       

(X_U1.91)   40.0000                   (X_U1.92)  -40.0000                       

(X_U1.99)    5.0000                   




    VOLTAGE SOURCE CURRENTS
    NAME         CURRENT

    V_V1         1.006E-11
    V_V2        -9.992E-01
    X_U1.vb      1.505E-05
    X_U1.vc      8.817E-12
    X_U1.ve     -4.061E-02
    X_U1.vlim   -4.061E-02
    X_U1.vlp    -8.061E-11
    X_U1.vln     1.189E-05

    TOTAL POWER DISSIPATION   1.00E+01  WATTS


**** 07/21/23 18:38:39 ******* PSpice 17.4.0 (Nov 2018) ******* ID# 0 ********

 ** Profile: "SCHEMATIC1-MC_WC_Exam"  [ D:\Ian_Jung\workplace\PSpice\Monte_Carlo-Worst_Case-PSpiceFiles\SCHEMATIC1\MC_WC_Exam.sim ] 


 ****     INITIAL TRANSIENT SOLUTION       TEMPERATURE =   27.000 DEG C

 ****     CURRENT STEP                     V_V1 =   10.5  

                      MONTE CARLO PASS 7

******************************************************************************



 NODE   VOLTAGE     NODE   VOLTAGE     NODE   VOLTAGE     NODE   VOLTAGE


(   IN)    0.0000  (  OUT)     .1837  (N14530) 98.35E-09 (N14684)    5.9667     

(N14719)   10.0000 (X_U1.6)    1.5026 (X_U1.7)   -1.8466 (X_U1.8)   -1.8466     

(X_U1.9)    0.0000 (X_U1.10)    5.3269                   (X_U1.11)    9.9203    

(X_U1.12)   10.0000                   (X_U1.13)    5.3548                       

(X_U1.14)    5.3269                   (X_U1.53)    9.0000                       

(X_U1.54)    1.0000                   (X_U1.90)  -40.6060                       

(X_U1.91)   40.0000                   (X_U1.92)  -40.0000                       

(X_U1.99)    5.0000                   




    VOLTAGE SOURCE CURRENTS
    NAME         CURRENT

    V_V1         1.006E-11
    V_V2        -9.953E-01
    X_U1.vb      1.503E-05
    X_U1.vc      8.817E-12
    X_U1.ve     -4.061E-02
    X_U1.vlim   -4.061E-02
    X_U1.vlp    -8.061E-11
    X_U1.vln     1.187E-05

    TOTAL POWER DISSIPATION   9.99E+00  WATTS


**** 07/21/23 18:38:39 ******* PSpice 17.4.0 (Nov 2018) ******* ID# 0 ********

 ** Profile: "SCHEMATIC1-MC_WC_Exam"  [ D:\Ian_Jung\workplace\PSpice\Monte_Carlo-Worst_Case-PSpiceFiles\SCHEMATIC1\MC_WC_Exam.sim ] 


 ****     INITIAL TRANSIENT SOLUTION       TEMPERATURE =   27.000 DEG C

 ****     CURRENT STEP                     V_V1 =   10.5  

                      MONTE CARLO PASS 8

******************************************************************************



 NODE   VOLTAGE     NODE   VOLTAGE     NODE   VOLTAGE     NODE   VOLTAGE


(   IN)    0.0000  (  OUT)     .1837  (N14530) 93.42E-09 (N14684)    5.9244     

(N14719)   10.0000 (X_U1.6)    1.5023 (X_U1.7)   -1.8466 (X_U1.8)   -1.8466     

(X_U1.9)    0.0000 (X_U1.10)    5.2847                   (X_U1.11)    9.9203    

(X_U1.12)   10.0000                   (X_U1.13)    5.3125                       

(X_U1.14)    5.2847                   (X_U1.53)    9.0000                       

(X_U1.54)    1.0000                   (X_U1.90)  -40.6060                       

(X_U1.91)   40.0000                   (X_U1.92)  -40.0000                       

(X_U1.99)    5.0000                   




    VOLTAGE SOURCE CURRENTS
    NAME         CURRENT

    V_V1         1.006E-11
    V_V2        -1.028E+00
    X_U1.vb      1.502E-05
    X_U1.vc      8.817E-12
    X_U1.ve     -4.061E-02
    X_U1.vlim   -4.061E-02
    X_U1.vlp    -8.061E-11
    X_U1.vln     1.187E-05

    TOTAL POWER DISSIPATION   1.03E+01  WATTS


**** 07/21/23 18:38:39 ******* PSpice 17.4.0 (Nov 2018) ******* ID# 0 ********

 ** Profile: "SCHEMATIC1-MC_WC_Exam"  [ D:\Ian_Jung\workplace\PSpice\Monte_Carlo-Worst_Case-PSpiceFiles\SCHEMATIC1\MC_WC_Exam.sim ] 


 ****     INITIAL TRANSIENT SOLUTION       TEMPERATURE =   27.000 DEG C

 ****     CURRENT STEP                     V_V1 =   10.5  

                      MONTE CARLO PASS 9

******************************************************************************



 NODE   VOLTAGE     NODE   VOLTAGE     NODE   VOLTAGE     NODE   VOLTAGE


(   IN)    0.0000  (  OUT)     .1837  (N14530) 98.78E-09 (N14684)    6.0498     

(N14719)   10.0000 (X_U1.6)    1.5033 (X_U1.7)   -1.8466 (X_U1.8)   -1.8466     

(X_U1.9)    0.0000 (X_U1.10)    5.4100                   (X_U1.11)    9.9203    

(X_U1.12)   10.0000                   (X_U1.13)    5.4379                       

(X_U1.14)    5.4100                   (X_U1.53)    9.0000                       

(X_U1.54)    1.0000                   (X_U1.90)  -40.6060                       

(X_U1.91)   40.0000                   (X_U1.92)  -40.0000                       

(X_U1.99)    5.0000                   




    VOLTAGE SOURCE CURRENTS
    NAME         CURRENT

    V_V1         1.006E-11
    V_V2        -1.013E+00
    X_U1.vb      1.503E-05
    X_U1.vc      8.817E-12
    X_U1.ve     -4.061E-02
    X_U1.vlim   -4.061E-02
    X_U1.vlp    -8.061E-11
    X_U1.vln     1.188E-05

    TOTAL POWER DISSIPATION   1.02E+01  WATTS


**** 07/21/23 18:38:39 ******* PSpice 17.4.0 (Nov 2018) ******* ID# 0 ********

 ** Profile: "SCHEMATIC1-MC_WC_Exam"  [ D:\Ian_Jung\workplace\PSpice\Monte_Carlo-Worst_Case-PSpiceFiles\SCHEMATIC1\MC_WC_Exam.sim ] 


 ****     INITIAL TRANSIENT SOLUTION       TEMPERATURE =   27.000 DEG C

 ****     CURRENT STEP                     V_V1 =   10.5  

                      MONTE CARLO PASS 10

******************************************************************************



 NODE   VOLTAGE     NODE   VOLTAGE     NODE   VOLTAGE     NODE   VOLTAGE


(   IN)    0.0000  (  OUT)     .1837  (N14530) 95.88E-09 (N14684)    6.1712     

(N14719)   10.0000 (X_U1.6)    1.5043 (X_U1.7)   -1.8466 (X_U1.8)   -1.8466     

(X_U1.9)    0.0000 (X_U1.10)    5.5314                   (X_U1.11)    9.9202    

(X_U1.12)   10.0000                   (X_U1.13)    5.5593                       

(X_U1.14)    5.5314                   (X_U1.53)    9.0000                       

(X_U1.54)    1.0000                   (X_U1.90)  -40.6060                       

(X_U1.91)   40.0000                   (X_U1.92)  -40.0000                       

(X_U1.99)    5.0000                   




    VOLTAGE SOURCE CURRENTS
    NAME         CURRENT

    V_V1         1.006E-11
    V_V2        -9.575E-01
    X_U1.vb      1.504E-05
    X_U1.vc      8.817E-12
    X_U1.ve     -4.061E-02
    X_U1.vlim   -4.061E-02
    X_U1.vlp    -8.061E-11
    X_U1.vln     1.189E-05

    TOTAL POWER DISSIPATION   9.62E+00  WATTS


**** 07/21/23 18:38:39 ******* PSpice 17.4.0 (Nov 2018) ******* ID# 0 ********

 ** Profile: "SCHEMATIC1-MC_WC_Exam"  [ D:\Ian_Jung\workplace\PSpice\Monte_Carlo-Worst_Case-PSpiceFiles\SCHEMATIC1\MC_WC_Exam.sim ] 


 ****     SORTED DEVIATIONS OF V(OUT)      TEMPERATURE =   27.000 DEG C

 ****     CURRENT STEP                     V_V1 =   10.5  

                      MONTE CARLO SUMMARY

******************************************************************************





Mean Deviation =    7.4902
Sigma          =    6.0538

 RUN                    MAX DEVIATION FROM NOMINAL

Pass   10               9.6325  (1.59 sigma)  higher  at T =     .0419
                        (   5.3426E+03% of Nominal)

Pass    8               9.6325  (1.59 sigma)  higher  at T =     .042 
                        (   5.3426E+03% of Nominal)

Pass    3               9.6325  (1.59 sigma)  higher  at T =     .0419
                        (   5.3426E+03% of Nominal)

Pass    7               9.6325  (1.59 sigma)  higher  at T =     .0419
                        (   5.3426E+03% of Nominal)

Pass    6               9.6325  (1.59 sigma)  higher  at T =    1.9767E-03
                        (   5.3425E+03% of Nominal)

Pass    9               9.6325  (1.59 sigma)  higher  at T =     .022 
                        (   5.3425E+03% of Nominal)

Pass    4               9.6324  (1.59 sigma)  lower  at T =    2.1202E-03
                        (   1.8719% of Nominal)

Pass    2               9.6292  (1.59 sigma)  higher  at T =     .0115
                        (   5.3372E+03% of Nominal)

Pass    5               9.6202  (1.59 sigma)  higher  at T =     .0115
                        (   5.3323E+03% of Nominal)



          JOB CONCLUDED

**** 07/21/23 18:38:39 ******* PSpice 17.4.0 (Nov 2018) ******* ID# 0 ********

 ** Profile: "SCHEMATIC1-MC_WC_Exam"  [ D:\Ian_Jung\workplace\PSpice\Monte_Carlo-Worst_Case-PSpiceFiles\SCHEMATIC1\MC_WC_Exam.sim ] 


 ****     JOB STATISTICS SUMMARY

 ****     CURRENT STEP                     V_V1 =   10.5  


******************************************************************************



  License check-out time            =       51.30
  Total job time (using Solver 1)   =        3.72
