
**** 07/17/23 15:16:21 ******* PSpice 17.4.0 (Nov 2018) ******* ID# 0 ********

 ** Profile: "SCHEMATIC1-DC_sweep"  [ D:\Ian_Jung\workplace\PSpice\part_4_Transient-PSpiceFiles\SCHEMATIC1\DC_sweep.sim ] 


 ****     CIRCUIT DESCRIPTION


******************************************************************************




** Creating circuit file "DC_sweep.cir" 
** WARNING: THIS AUTOMATICALLY GENERATED FILE MAY BE OVERWRITTEN BY SUBSEQUENT SIMULATIONS

*Libraries: 
* Profile Libraries :
* Local Libraries :
* From [PSPICE NETLIST] section of C:\SPB_Data\cdssetup\OrCAD_PSpice\17.4.0\PSpice.ini file:
.lib "nom.lib" 

*Analysis directives: 
.DC LIN V_V1 0 10 0.1 
.OPTIONS ADVCONV
.PROBE64 V(alias(*)) I(alias(*)) W(alias(*)) D(alias(*)) NOISE(alias(*)) 
.INC "..\SCHEMATIC1.net" 



**** INCLUDING SCHEMATIC1.net ****
* source PART_4_TRANSIENT
V_V1         N14506 0 6Vdc
R_R1         OUT1 N14506  6.8k TC=0,0 
R_R2         N14567 N14506  100k TC=0,0 
R_R3         N14576 N14506  100k TC=0,0 
R_R4         OUT2 N14506  6.8k TC=0,0 
C_C1         OUT1 N14567  0.01u IC=5V TC=0,0 
C_C2         N14576 OUT2  0.01u  TC=0,0 
Q_Q1         OUT1 N14576 0 Q2N3904
Q_Q2         OUT2 N14567 0 Q2N3904
V_V2         N15620 0 0Vdc
R_R6         N15620 OUT  10 TC=0,0 
R_R7         0 OUT  1k TC=0,0 
D_D2         0 OUT D1N750 

**** RESUMING DC_sweep.cir ****
.END

**** 07/17/23 15:16:21 ******* PSpice 17.4.0 (Nov 2018) ******* ID# 0 ********

 ** Profile: "SCHEMATIC1-DC_sweep"  [ D:\Ian_Jung\workplace\PSpice\part_4_Transient-PSpiceFiles\SCHEMATIC1\DC_sweep.sim ] 


 ****     Diode MODEL PARAMETERS


******************************************************************************




               D1N750          
          IS  880.500000E-18 
         ISR    1.859000E-09 
          BV    4.7          
         IBV     .020245     
         NBV    1.6989       
        IBVL    1.955600E-03 
        NBVL   14.976        
          RS     .25         
         CJO  175.000000E-12 
          VJ     .75         
           M     .5516       
        TBV1  -21.277000E-06 


**** 07/17/23 15:16:21 ******* PSpice 17.4.0 (Nov 2018) ******* ID# 0 ********

 ** Profile: "SCHEMATIC1-DC_sweep"  [ D:\Ian_Jung\workplace\PSpice\part_4_Transient-PSpiceFiles\SCHEMATIC1\DC_sweep.sim ] 


 ****     BJT MODEL PARAMETERS


******************************************************************************




               Q2N3904         
               NPN             
       LEVEL    1            
          IS    6.734000E-15 
          BF  416.4          
          NF    1            
         VAF   74.03         
         IKF     .06678      
         ISE    6.734000E-15 
          NE    1.259        
          BR     .7371       
          NR    1            
         ISS    0            
          RB   10            
          RE    0            
          RC    1            
         CJE    4.493000E-12 
         VJE     .75         
         MJE     .2593       
         CJC    3.638000E-12 
         VJC     .75         
         MJC     .3085       
        XCJC    1            
         CJS    0            
         VJS     .75         
          TF  301.200000E-12 
         XTF    2            
         VTF    4            
         ITF     .4          
          TR  239.500000E-09 
         XTB    1.5          
          KF    0            
          AF    1            
          CN    2.42         
           D     .87         



          JOB CONCLUDED

**** 07/17/23 15:16:21 ******* PSpice 17.4.0 (Nov 2018) ******* ID# 0 ********

 ** Profile: "SCHEMATIC1-DC_sweep"  [ D:\Ian_Jung\workplace\PSpice\part_4_Transient-PSpiceFiles\SCHEMATIC1\DC_sweep.sim ] 


 ****     JOB STATISTICS SUMMARY


******************************************************************************



  Total job time (using Solver 1)   =         .02
