
**** 07/17/23 12:04:01 ******* PSpice 17.4.0 (Nov 2018) ******* ID# 0 ********

 ** Profile: "SCHEMATIC1-transient"  [ D:\Ian_Jung\workplace\PSpice\part_3_bias_point-PSpiceFiles\SCHEMATIC1\transient.sim ] 


 ****     CIRCUIT DESCRIPTION


******************************************************************************




** Creating circuit file "transient.cir" 
** WARNING: THIS AUTOMATICALLY GENERATED FILE MAY BE OVERWRITTEN BY SUBSEQUENT SIMULATIONS

*Libraries: 
* Profile Libraries :
* Local Libraries :
* From [PSPICE NETLIST] section of C:\SPB_Data\cdssetup\OrCAD_PSpice\17.4.0\PSpice.ini file:
.lib "nom.lib" 

*Analysis directives: 
.TRAN  0 100 0 10M SKIPBP 
.OPTIONS ADVCONV
.PROBE64 V(alias(*)) I(alias(*)) W(alias(*)) D(alias(*)) NOISE(alias(*)) 
.INC "..\SCHEMATIC1.net" 



**** INCLUDING SCHEMATIC1.net ****
* source PART_3_BIAS_POINT
V_V1         N14717 0 5Vdc
R_R1         N14724 OUT  100k TC=0,0 
C_C1         0 OUT  100U  TC=0,0 
X_U1         N14717 N14724 Sw_tOpen PARAMS: tOpen=50 ttran=1u Rclosed=0.01
+  Ropen=1Meg
X_U2         0 N14724 Sw_tClose PARAMS: tClose=50 ttran=1u Rclosed=0.01
+  Ropen=1Meg

**** RESUMING transient.cir ****
.END

**** 07/17/23 12:04:01 ******* PSpice 17.4.0 (Nov 2018) ******* ID# 0 ********

 ** Profile: "SCHEMATIC1-transient"  [ D:\Ian_Jung\workplace\PSpice\part_3_bias_point-PSpiceFiles\SCHEMATIC1\transient.sim ] 


 ****     Voltage Controlled Switch MODEL PARAMETERS


******************************************************************************




               X_U1.Smod       X_U2.Smod       
         RON     .01             .01         
        ROFF    1.000000E+06    1.000000E+06 
         VON    1               1            
        VOFF    0               0            



          JOB CONCLUDED

**** 07/17/23 12:04:01 ******* PSpice 17.4.0 (Nov 2018) ******* ID# 0 ********

 ** Profile: "SCHEMATIC1-transient"  [ D:\Ian_Jung\workplace\PSpice\part_3_bias_point-PSpiceFiles\SCHEMATIC1\transient.sim ] 


 ****     JOB STATISTICS SUMMARY


******************************************************************************



  Total job time (using Solver 1)   =         .08
